/*---------------------------------------------------------------------------*\
| =========                 |                                                 |
| \\      /  F ield         | OpenFOAM: The Open Source CFD Toolbox           |
|  \\    /   O peration     | Version:  v2012                                 |
|   \\  /    A nd           | Website:  www.openfoam.com                      |
|    \\/     M anipulation  |                                                 |
\*---------------------------------------------------------------------------*/
Build  : _7bdb509494-20201222 OPENFOAM=2012
Arch   : "LSB;label=32;scalar=64"
Exec   : simpleEnergyFoam
Date   : Dec 11 2024
Time   : 17:08:16
Host   : LAPTOP-GVUAVT57
PID    : 13486
I/O    : uncollated
Case   : /home/gspasov/OpenFOAM/IntroductionToOF/Lecture2/elbow1
nProcs : 1
trapFpe: Floating point exception trapping enabled (FOAM_SIGFPE).
fileModificationChecking : Monitoring run-time modified files using timeStampMaster (fileModificationSkew 5, maxFileModificationPolls 20)
allowSystemOperations : Allowing user-supplied system call operations

// * * * * * * * * * * * * * * * * * * * * * * * * * * * * * * * * * * * * * //
Create time

Create mesh for time = 0


SIMPLE: no convergence criteria found. Calculations will run for 4000 steps.

Reading field p

Reading field U

Reading/calculating face flux field phi

Selecting incompressible transport model Newtonian
Selecting turbulence model type laminar
Selecting laminar stress model Stokes
No MRF models present

No finite volume options present
Reading field T


Starting time loop

surfaceFieldValue outletBulkTemperature:
    operation     = weightedAverage
    weight field  = (phi)


Time = 1

smoothSolver:  Solving for Ux, Initial residual = 1, Final residual = 0.000624633, No Iterations 1
smoothSolver:  Solving for Uy, Initial residual = 1, Final residual = 0.000177927, No Iterations 1
GAMG:  Solving for p, Initial residual = 1, Final residual = 0.00539946, No Iterations 10
time step continuity errors : sum local = 5.18969e-05, global = -2.70275e-06, cumulative = -2.70275e-06
smoothSolver:  Solving for T, Initial residual = 1, Final residual = 0.0992742, No Iterations 6
ExecutionTime = 0.04 s  ClockTime = 0 s

surfaceFieldValue outletBulkTemperature write:
    total faces   = 40
    total area    = 0.16

    weightedAverage(outlet) of T = 293

Time = 2

smoothSolver:  Solving for Ux, Initial residual = 0.07895, Final residual = 0.0067395, No Iterations 3
smoothSolver:  Solving for Uy, Initial residual = 0.0541627, Final residual = 0.00400192, No Iterations 4
GAMG:  Solving for p, Initial residual = 0.846593, Final residual = 0.00612854, No Iterations 6
time step continuity errors : sum local = 0.000115165, global = -2.60999e-06, cumulative = -5.31275e-06
smoothSolver:  Solving for T, Initial residual = 0.241047, Final residual = 0.0213465, No Iterations 6
ExecutionTime = 0.06 s  ClockTime = 0 s

surfaceFieldValue outletBulkTemperature write:
    weightedAverage(outlet) of T = 293

Time = 3

smoothSolver:  Solving for Ux, Initial residual = 0.104478, Final residual = 0.00770904, No Iterations 4
smoothSolver:  Solving for Uy, Initial residual = 0.0305442, Final residual = 0.00297392, No Iterations 3
GAMG:  Solving for p, Initial residual = 0.224128, Final residual = 0.00173069, No Iterations 6
time step continuity errors : sum local = 0.000127551, global = 3.14997e-06, cumulative = -2.16278e-06
smoothSolver:  Solving for T, Initial residual = 0.206095, Final residual = 0.0154308, No Iterations 6
ExecutionTime = 0.06 s  ClockTime = 0 s

surfaceFieldValue outletBulkTemperature write:
    weightedAverage(outlet) of T = 293

Time = 4

smoothSolver:  Solving for Ux, Initial residual = 0.0529532, Final residual = 0.00321277, No Iterations 4
smoothSolver:  Solving for Uy, Initial residual = 0.0278688, Final residual = 0.00243815, No Iterations 3
GAMG:  Solving for p, Initial residual = 0.278662, Final residual = 0.00197579, No Iterations 6
time step continuity errors : sum local = 9.88804e-05, global = -2.62367e-06, cumulative = -4.78645e-06
smoothSolver:  Solving for T, Initial residual = 0.136115, Final residual = 0.00911679, No Iterations 6
ExecutionTime = 0.07 s  ClockTime = 0 s

surfaceFieldValue outletBulkTemperature write:
    weightedAverage(outlet) of T = 293

Time = 5

smoothSolver:  Solving for Ux, Initial residual = 0.0552058, Final residual = 0.00270424, No Iterations 3
smoothSolver:  Solving for Uy, Initial residual = 0.0190994, Final residual = 0.00120106, No Iterations 3
GAMG:  Solving for p, Initial residual = 0.230266, Final residual = 0.00167453, No Iterations 6
time step continuity errors : sum local = 7.52692e-05, global = 1.88781e-06, cumulative = -2.89864e-06
smoothSolver:  Solving for T, Initial residual = 0.110567, Final residual = 0.00786717, No Iterations 5
ExecutionTime = 0.07 s  ClockTime = 0 s

surfaceFieldValue outletBulkTemperature write:
    weightedAverage(outlet) of T = 293

Time = 6

smoothSolver:  Solving for Ux, Initial residual = 0.052736, Final residual = 0.00490292, No Iterations 2
smoothSolver:  Solving for Uy, Initial residual = 0.0220557, Final residual = 0.00193159, No Iterations 2
GAMG:  Solving for p, Initial residual = 0.239567, Final residual = 0.00147698, No Iterations 6
time step continuity errors : sum local = 5.51942e-05, global = -2.26324e-06, cumulative = -5.16188e-06
smoothSolver:  Solving for T, Initial residual = 0.0919284, Final residual = 0.00775347, No Iterations 4
ExecutionTime = 0.09 s  ClockTime = 0 s

surfaceFieldValue outletBulkTemperature write:
    weightedAverage(outlet) of T = 293

Time = 7

smoothSolver:  Solving for Ux, Initial residual = 0.0416138, Final residual = 0.00293579, No Iterations 2
smoothSolver:  Solving for Uy, Initial residual = 0.0166367, Final residual = 0.00114946, No Iterations 2
GAMG:  Solving for p, Initial residual = 0.201595, Final residual = 0.00112442, No Iterations 6
time step continuity errors : sum local = 3.49053e-05, global = 9.57579e-07, cumulative = -4.2043e-06
smoothSolver:  Solving for T, Initial residual = 0.0761477, Final residual = 0.00731963, No Iterations 3
ExecutionTime = 0.09 s  ClockTime = 0 s

surfaceFieldValue outletBulkTemperature write:
    weightedAverage(outlet) of T = 293

Time = 8

smoothSolver:  Solving for Ux, Initial residual = 0.0374812, Final residual = 0.00250802, No Iterations 2
smoothSolver:  Solving for Uy, Initial residual = 0.017854, Final residual = 0.00138169, No Iterations 2
GAMG:  Solving for p, Initial residual = 0.17515, Final residual = 0.00160664, No Iterations 5
time step continuity errors : sum local = 4.36451e-05, global = -1.83654e-06, cumulative = -6.04085e-06
smoothSolver:  Solving for T, Initial residual = 0.0663018, Final residual = 0.00419374, No Iterations 3
ExecutionTime = 0.09 s  ClockTime = 0 s

surfaceFieldValue outletBulkTemperature write:
    weightedAverage(outlet) of T = 293

Time = 9

smoothSolver:  Solving for Ux, Initial residual = 0.0324951, Final residual = 0.0017691, No Iterations 2
smoothSolver:  Solving for Uy, Initial residual = 0.0162815, Final residual = 0.00105679, No Iterations 2
GAMG:  Solving for p, Initial residual = 0.142925, Final residual = 0.000986422, No Iterations 5
time step continuity errors : sum local = 2.85402e-05, global = 9.53738e-08, cumulative = -5.94547e-06
smoothSolver:  Solving for T, Initial residual = 0.0591338, Final residual = 0.00305103, No Iterations 3
ExecutionTime = 0.1 s  ClockTime = 0 s

surfaceFieldValue outletBulkTemperature write:
    weightedAverage(outlet) of T = 293

Time = 10

smoothSolver:  Solving for Ux, Initial residual = 0.0290784, Final residual = 0.0016143, No Iterations 2
smoothSolver:  Solving for Uy, Initial residual = 0.0157715, Final residual = 0.00112966, No Iterations 2
GAMG:  Solving for p, Initial residual = 0.121305, Final residual = 0.000816463, No Iterations 5
time step continuity errors : sum local = 2.42261e-05, global = 1.78892e-07, cumulative = -5.76658e-06
smoothSolver:  Solving for T, Initial residual = 0.0531817, Final residual = 0.00264552, No Iterations 3
ExecutionTime = 0.1 s  ClockTime = 0 s

surfaceFieldValue outletBulkTemperature write:
    weightedAverage(outlet) of T = 293

Time = 11

smoothSolver:  Solving for Ux, Initial residual = 0.0292356, Final residual = 0.00152978, No Iterations 2
smoothSolver:  Solving for Uy, Initial residual = 0.0150379, Final residual = 0.00106029, No Iterations 2
GAMG:  Solving for p, Initial residual = 0.109865, Final residual = 0.000837777, No Iterations 5
time step continuity errors : sum local = 2.56841e-05, global = 4.5718e-07, cumulative = -5.3094e-06
smoothSolver:  Solving for T, Initial residual = 0.0500598, Final residual = 0.00241534, No Iterations 3
ExecutionTime = 0.12 s  ClockTime = 0 s

surfaceFieldValue outletBulkTemperature write:
    weightedAverage(outlet) of T = 293

Time = 12

smoothSolver:  Solving for Ux, Initial residual = 0.0281172, Final residual = 0.00139086, No Iterations 2
smoothSolver:  Solving for Uy, Initial residual = 0.0147951, Final residual = 0.00112144, No Iterations 2
GAMG:  Solving for p, Initial residual = 0.0946316, Final residual = 0.00086244, No Iterations 5
time step continuity errors : sum local = 2.71515e-05, global = 1.26036e-06, cumulative = -4.04904e-06
smoothSolver:  Solving for T, Initial residual = 0.045736, Final residual = 0.00217009, No Iterations 3
ExecutionTime = 0.12 s  ClockTime = 0 s

surfaceFieldValue outletBulkTemperature write:
    weightedAverage(outlet) of T = 293

Time = 13

smoothSolver:  Solving for Ux, Initial residual = 0.0277868, Final residual = 0.00134239, No Iterations 2
smoothSolver:  Solving for Uy, Initial residual = 0.0147229, Final residual = 0.00112708, No Iterations 2
GAMG:  Solving for p, Initial residual = 0.0897057, Final residual = 0.000447033, No Iterations 6
time step continuity errors : sum local = 1.38964e-05, global = 3.04177e-07, cumulative = -3.74486e-06
smoothSolver:  Solving for T, Initial residual = 0.0426975, Final residual = 0.00201767, No Iterations 3
ExecutionTime = 0.13 s  ClockTime = 0 s

surfaceFieldValue outletBulkTemperature write:
    weightedAverage(outlet) of T = 293

Time = 14

smoothSolver:  Solving for Ux, Initial residual = 0.027557, Final residual = 0.00141115, No Iterations 2
smoothSolver:  Solving for Uy, Initial residual = 0.0146342, Final residual = 0.0010899, No Iterations 2
GAMG:  Solving for p, Initial residual = 0.094152, Final residual = 0.000825846, No Iterations 5
time step continuity errors : sum local = 2.44931e-05, global = 6.81594e-07, cumulative = -3.06327e-06
smoothSolver:  Solving for T, Initial residual = 0.0402802, Final residual = 0.00184735, No Iterations 3
ExecutionTime = 0.13 s  ClockTime = 0 s

surfaceFieldValue outletBulkTemperature write:
    weightedAverage(outlet) of T = 293

Time = 15

smoothSolver:  Solving for Ux, Initial residual = 0.0273597, Final residual = 0.00161993, No Iterations 2
smoothSolver:  Solving for Uy, Initial residual = 0.0145275, Final residual = 0.00107494, No Iterations 2
GAMG:  Solving for p, Initial residual = 0.0910102, Final residual = 0.000508509, No Iterations 6
time step continuity errors : sum local = 1.56078e-05, global = 2.54974e-07, cumulative = -2.80829e-06
smoothSolver:  Solving for T, Initial residual = 0.0382352, Final residual = 0.00375077, No Iterations 2
ExecutionTime = 0.13 s  ClockTime = 0 s

surfaceFieldValue outletBulkTemperature write:
    weightedAverage(outlet) of T = 293

Time = 16

smoothSolver:  Solving for Ux, Initial residual = 0.0270931, Final residual = 0.00187107, No Iterations 2
smoothSolver:  Solving for Uy, Initial residual = 0.0144479, Final residual = 0.00109694, No Iterations 2
GAMG:  Solving for p, Initial residual = 0.0887964, Final residual = 0.000628191, No Iterations 5
time step continuity errors : sum local = 2.02387e-05, global = 7.92694e-07, cumulative = -2.0156e-06
smoothSolver:  Solving for T, Initial residual = 0.0363828, Final residual = 0.00333362, No Iterations 2
ExecutionTime = 0.15 s  ClockTime = 0 s

surfaceFieldValue outletBulkTemperature write:
    weightedAverage(outlet) of T = 293

Time = 17

smoothSolver:  Solving for Ux, Initial residual = 0.0265572, Final residual = 0.00202706, No Iterations 2
smoothSolver:  Solving for Uy, Initial residual = 0.0143364, Final residual = 0.00112043, No Iterations 2
GAMG:  Solving for p, Initial residual = 0.0773691, Final residual = 0.000625867, No Iterations 5
time step continuity errors : sum local = 2.05574e-05, global = 1.84412e-06, cumulative = -1.71478e-07
smoothSolver:  Solving for T, Initial residual = 0.0346816, Final residual = 0.00298305, No Iterations 2
ExecutionTime = 0.15 s  ClockTime = 0 s

surfaceFieldValue outletBulkTemperature write:
    weightedAverage(outlet) of T = 293

Time = 18

smoothSolver:  Solving for Ux, Initial residual = 0.0259969, Final residual = 0.00201969, No Iterations 2
smoothSolver:  Solving for Uy, Initial residual = 0.014197, Final residual = 0.00111248, No Iterations 2
GAMG:  Solving for p, Initial residual = 0.0756897, Final residual = 0.000636487, No Iterations 5
time step continuity errors : sum local = 2.14971e-05, global = 2.02706e-06, cumulative = 1.85558e-06
smoothSolver:  Solving for T, Initial residual = 0.033404, Final residual = 0.00257481, No Iterations 2
ExecutionTime = 0.17 s  ClockTime = 0 s

surfaceFieldValue outletBulkTemperature write:
    weightedAverage(outlet) of T = 293

Time = 19

smoothSolver:  Solving for Ux, Initial residual = 0.0254531, Final residual = 0.00186842, No Iterations 2
smoothSolver:  Solving for Uy, Initial residual = 0.0140924, Final residual = 0.00106915, No Iterations 2
GAMG:  Solving for p, Initial residual = 0.0734056, Final residual = 0.000561009, No Iterations 5
time step continuity errors : sum local = 1.98371e-05, global = 1.80342e-06, cumulative = 3.659e-06
smoothSolver:  Solving for T, Initial residual = 0.0319684, Final residual = 0.00221217, No Iterations 2
ExecutionTime = 0.17 s  ClockTime = 0 s

surfaceFieldValue outletBulkTemperature write:
    weightedAverage(outlet) of T = 293

Time = 20

smoothSolver:  Solving for Ux, Initial residual = 0.0248856, Final residual = 0.00168808, No Iterations 2
smoothSolver:  Solving for Uy, Initial residual = 0.0140245, Final residual = 0.00101224, No Iterations 2
GAMG:  Solving for p, Initial residual = 0.0778114, Final residual = 0.000459551, No Iterations 5
time step continuity errors : sum local = 1.74028e-05, global = 1.60793e-06, cumulative = 5.26693e-06
smoothSolver:  Solving for T, Initial residual = 0.0306446, Final residual = 0.00185338, No Iterations 2
ExecutionTime = 0.18 s  ClockTime = 0 s

surfaceFieldValue outletBulkTemperature write:
    weightedAverage(outlet) of T = 293

Time = 21

smoothSolver:  Solving for Ux, Initial residual = 0.0242973, Final residual = 0.0014981, No Iterations 2
smoothSolver:  Solving for Uy, Initial residual = 0.0139696, Final residual = 0.000942597, No Iterations 2
GAMG:  Solving for p, Initial residual = 0.0694969, Final residual = 0.000416252, No Iterations 5
time step continuity errors : sum local = 1.60869e-05, global = 1.46292e-06, cumulative = 6.72985e-06
smoothSolver:  Solving for T, Initial residual = 0.0293467, Final residual = 0.00155335, No Iterations 2
ExecutionTime = 0.18 s  ClockTime = 0 s

surfaceFieldValue outletBulkTemperature write:
    weightedAverage(outlet) of T = 293

Time = 22

smoothSolver:  Solving for Ux, Initial residual = 0.0237555, Final residual = 0.00132302, No Iterations 2
smoothSolver:  Solving for Uy, Initial residual = 0.0138797, Final residual = 0.000863263, No Iterations 2
GAMG:  Solving for p, Initial residual = 0.0656271, Final residual = 0.000385365, No Iterations 5
time step continuity errors : sum local = 1.55429e-05, global = 7.62808e-07, cumulative = 7.49266e-06
smoothSolver:  Solving for T, Initial residual = 0.0280996, Final residual = 0.00131092, No Iterations 2
ExecutionTime = 0.18 s  ClockTime = 0 s

surfaceFieldValue outletBulkTemperature write:
    weightedAverage(outlet) of T = 293.001

Time = 23

smoothSolver:  Solving for Ux, Initial residual = 0.0232857, Final residual = 0.00120145, No Iterations 2
smoothSolver:  Solving for Uy, Initial residual = 0.0138249, Final residual = 0.000788272, No Iterations 2
GAMG:  Solving for p, Initial residual = 0.0660053, Final residual = 0.000382362, No Iterations 5
time step continuity errors : sum local = 1.58794e-05, global = -1.81757e-07, cumulative = 7.3109e-06
smoothSolver:  Solving for T, Initial residual = 0.0269481, Final residual = 0.00111348, No Iterations 2
ExecutionTime = 0.2 s  ClockTime = 0 s

surfaceFieldValue outletBulkTemperature write:
    weightedAverage(outlet) of T = 293.001

Time = 24

smoothSolver:  Solving for Ux, Initial residual = 0.0228034, Final residual = 0.00108302, No Iterations 2
smoothSolver:  Solving for Uy, Initial residual = 0.0137371, Final residual = 0.000723757, No Iterations 2
GAMG:  Solving for p, Initial residual = 0.0628646, Final residual = 0.000402517, No Iterations 5
time step continuity errors : sum local = 1.70962e-05, global = -8.0135e-07, cumulative = 6.50955e-06
smoothSolver:  Solving for T, Initial residual = 0.025831, Final residual = 0.000966591, No Iterations 2
ExecutionTime = 0.2 s  ClockTime = 0 s

surfaceFieldValue outletBulkTemperature write:
    weightedAverage(outlet) of T = 293.002

Time = 25

smoothSolver:  Solving for Ux, Initial residual = 0.0223746, Final residual = 0.00099211, No Iterations 2
smoothSolver:  Solving for Uy, Initial residual = 0.0136652, Final residual = 0.000669583, No Iterations 2
GAMG:  Solving for p, Initial residual = 0.0605157, Final residual = 0.000398852, No Iterations 5
time step continuity errors : sum local = 1.70728e-05, global = -8.90391e-07, cumulative = 5.61916e-06
smoothSolver:  Solving for T, Initial residual = 0.024786, Final residual = 0.00232475, No Iterations 1
ExecutionTime = 0.21 s  ClockTime = 0 s

surfaceFieldValue outletBulkTemperature write:
    weightedAverage(outlet) of T = 293.004

Time = 26

smoothSolver:  Solving for Ux, Initial residual = 0.0219263, Final residual = 0.000908491, No Iterations 2
smoothSolver:  Solving for Uy, Initial residual = 0.0135956, Final residual = 0.000621421, No Iterations 2
GAMG:  Solving for p, Initial residual = 0.0651708, Final residual = 0.000404647, No Iterations 5
time step continuity errors : sum local = 1.77308e-05, global = -1.0451e-06, cumulative = 4.57406e-06
smoothSolver:  Solving for T, Initial residual = 0.0240926, Final residual = 0.0020863, No Iterations 1
ExecutionTime = 0.21 s  ClockTime = 0 s

surfaceFieldValue outletBulkTemperature write:
    weightedAverage(outlet) of T = 293.006

Time = 27

smoothSolver:  Solving for Ux, Initial residual = 0.0215453, Final residual = 0.000834937, No Iterations 2
smoothSolver:  Solving for Uy, Initial residual = 0.0134836, Final residual = 0.000580277, No Iterations 2
GAMG:  Solving for p, Initial residual = 0.0606696, Final residual = 0.000434776, No Iterations 5
time step continuity errors : sum local = 1.89198e-05, global = -1.07653e-06, cumulative = 3.49753e-06
smoothSolver:  Solving for T, Initial residual = 0.023352, Final residual = 0.00190301, No Iterations 1
ExecutionTime = 0.23 s  ClockTime = 0 s

surfaceFieldValue outletBulkTemperature write:
    weightedAverage(outlet) of T = 293.01

Time = 28

smoothSolver:  Solving for Ux, Initial residual = 0.0211209, Final residual = 0.000799169, No Iterations 2
smoothSolver:  Solving for Uy, Initial residual = 0.0133764, Final residual = 0.000557103, No Iterations 2
GAMG:  Solving for p, Initial residual = 0.0602891, Final residual = 0.000433725, No Iterations 5
time step continuity errors : sum local = 1.89517e-05, global = -1.12137e-06, cumulative = 2.37616e-06
smoothSolver:  Solving for T, Initial residual = 0.0227057, Final residual = 0.00182306, No Iterations 1
ExecutionTime = 0.23 s  ClockTime = 0 s

surfaceFieldValue outletBulkTemperature write:
    weightedAverage(outlet) of T = 293.016

Time = 29

smoothSolver:  Solving for Ux, Initial residual = 0.0207052, Final residual = 0.00206147, No Iterations 1
smoothSolver:  Solving for Uy, Initial residual = 0.0132006, Final residual = 0.000541985, No Iterations 2
GAMG:  Solving for p, Initial residual = 0.0613585, Final residual = 0.000393317, No Iterations 5
time step continuity errors : sum local = 1.72848e-05, global = -1.17973e-06, cumulative = 1.19643e-06
smoothSolver:  Solving for T, Initial residual = 0.0221627, Final residual = 0.00184493, No Iterations 1
ExecutionTime = 0.23 s  ClockTime = 0 s

surfaceFieldValue outletBulkTemperature write:
    weightedAverage(outlet) of T = 293.025

Time = 30

smoothSolver:  Solving for Ux, Initial residual = 0.0204862, Final residual = 0.000792573, No Iterations 2
smoothSolver:  Solving for Uy, Initial residual = 0.0129339, Final residual = 0.000514315, No Iterations 2
GAMG:  Solving for p, Initial residual = 0.0594565, Final residual = 0.000424563, No Iterations 5
time step continuity errors : sum local = 1.86513e-05, global = -1.10115e-06, cumulative = 9.52765e-08
smoothSolver:  Solving for T, Initial residual = 0.0217619, Final residual = 0.00190153, No Iterations 1
ExecutionTime = 0.24 s  ClockTime = 0 s

surfaceFieldValue outletBulkTemperature write:
    weightedAverage(outlet) of T = 293.041

Time = 31

smoothSolver:  Solving for Ux, Initial residual = 0.0197865, Final residual = 0.00195345, No Iterations 1
smoothSolver:  Solving for Uy, Initial residual = 0.0127221, Final residual = 0.000510052, No Iterations 2
GAMG:  Solving for p, Initial residual = 0.0572964, Final residual = 0.000355875, No Iterations 5
time step continuity errors : sum local = 1.56309e-05, global = -1.16999e-06, cumulative = -1.07471e-06
smoothSolver:  Solving for T, Initial residual = 0.0213663, Final residual = 0.00195166, No Iterations 1
ExecutionTime = 0.24 s  ClockTime = 0 s

surfaceFieldValue outletBulkTemperature write:
    weightedAverage(outlet) of T = 293.063

Time = 32

smoothSolver:  Solving for Ux, Initial residual = 0.019428, Final residual = 0.000747738, No Iterations 2
smoothSolver:  Solving for Uy, Initial residual = 0.0124882, Final residual = 0.00050132, No Iterations 2
GAMG:  Solving for p, Initial residual = 0.0568109, Final residual = 0.000379427, No Iterations 5
time step continuity errors : sum local = 1.6841e-05, global = -1.2425e-06, cumulative = -2.31721e-06
smoothSolver:  Solving for T, Initial residual = 0.0210921, Final residual = 0.00202216, No Iterations 1
ExecutionTime = 0.26 s  ClockTime = 0 s

surfaceFieldValue outletBulkTemperature write:
    weightedAverage(outlet) of T = 293.096

Time = 33

smoothSolver:  Solving for Ux, Initial residual = 0.0184989, Final residual = 0.0018, No Iterations 1
smoothSolver:  Solving for Uy, Initial residual = 0.0123005, Final residual = 0.000501795, No Iterations 2
GAMG:  Solving for p, Initial residual = 0.0523794, Final residual = 0.000322118, No Iterations 5
time step continuity errors : sum local = 1.42971e-05, global = -1.06465e-06, cumulative = -3.38186e-06
smoothSolver:  Solving for T, Initial residual = 0.0208, Final residual = 0.00207806, No Iterations 1
ExecutionTime = 0.26 s  ClockTime = 0 s

surfaceFieldValue outletBulkTemperature write:
    weightedAverage(outlet) of T = 293.143

Time = 34

smoothSolver:  Solving for Ux, Initial residual = 0.018065, Final residual = 0.000703997, No Iterations 2
smoothSolver:  Solving for Uy, Initial residual = 0.012124, Final residual = 0.000495677, No Iterations 2
GAMG:  Solving for p, Initial residual = 0.0512922, Final residual = 0.000321422, No Iterations 5
time step continuity errors : sum local = 1.44908e-05, global = -1.17229e-06, cumulative = -4.55415e-06
smoothSolver:  Solving for T, Initial residual = 0.0205424, Final residual = 0.000637312, No Iterations 2
ExecutionTime = 0.27 s  ClockTime = 0 s

surfaceFieldValue outletBulkTemperature write:
    weightedAverage(outlet) of T = 293.211

Time = 35

smoothSolver:  Solving for Ux, Initial residual = 0.0170979, Final residual = 0.00064777, No Iterations 2
smoothSolver:  Solving for Uy, Initial residual = 0.0120642, Final residual = 0.000504033, No Iterations 2
GAMG:  Solving for p, Initial residual = 0.0516561, Final residual = 0.000289782, No Iterations 5
time step continuity errors : sum local = 1.31233e-05, global = -1.18942e-06, cumulative = -5.74357e-06
smoothSolver:  Solving for T, Initial residual = 0.0201864, Final residual = 0.000613657, No Iterations 2
ExecutionTime = 0.27 s  ClockTime = 0 s

surfaceFieldValue outletBulkTemperature write:
    weightedAverage(outlet) of T = 293.301

Time = 36

smoothSolver:  Solving for Ux, Initial residual = 0.0163857, Final residual = 0.000629228, No Iterations 2
smoothSolver:  Solving for Uy, Initial residual = 0.0120579, Final residual = 0.000512132, No Iterations 2
GAMG:  Solving for p, Initial residual = 0.045484, Final residual = 0.000267562, No Iterations 5
time step continuity errors : sum local = 1.20903e-05, global = -1.15195e-06, cumulative = -6.89551e-06
smoothSolver:  Solving for T, Initial residual = 0.0199088, Final residual = 0.00058716, No Iterations 2
ExecutionTime = 0.27 s  ClockTime = 0 s

surfaceFieldValue outletBulkTemperature write:
    weightedAverage(outlet) of T = 293.42

Time = 37

smoothSolver:  Solving for Ux, Initial residual = 0.0157906, Final residual = 0.0006333, No Iterations 2
smoothSolver:  Solving for Uy, Initial residual = 0.0120348, Final residual = 0.000517618, No Iterations 2
GAMG:  Solving for p, Initial residual = 0.0430698, Final residual = 0.000247136, No Iterations 5
time step continuity errors : sum local = 1.12285e-05, global = -1.09171e-06, cumulative = -7.98722e-06
smoothSolver:  Solving for T, Initial residual = 0.0196098, Final residual = 0.000564967, No Iterations 2
ExecutionTime = 0.29 s  ClockTime = 0 s

surfaceFieldValue outletBulkTemperature write:
    weightedAverage(outlet) of T = 293.572

Time = 38

smoothSolver:  Solving for Ux, Initial residual = 0.0152493, Final residual = 0.000638351, No Iterations 2
smoothSolver:  Solving for Uy, Initial residual = 0.0120502, Final residual = 0.000519017, No Iterations 2
GAMG:  Solving for p, Initial residual = 0.0421141, Final residual = 0.000228524, No Iterations 5
time step continuity errors : sum local = 1.03999e-05, global = -8.90932e-07, cumulative = -8.87816e-06
smoothSolver:  Solving for T, Initial residual = 0.0193149, Final residual = 0.000546688, No Iterations 2
ExecutionTime = 0.29 s  ClockTime = 0 s

surfaceFieldValue outletBulkTemperature write:
    weightedAverage(outlet) of T = 293.764

Time = 39

smoothSolver:  Solving for Ux, Initial residual = 0.0148408, Final residual = 0.00064643, No Iterations 2
smoothSolver:  Solving for Uy, Initial residual = 0.0120683, Final residual = 0.000516155, No Iterations 2
GAMG:  Solving for p, Initial residual = 0.0422887, Final residual = 0.000202458, No Iterations 5
time step continuity errors : sum local = 9.24585e-06, global = -6.22913e-07, cumulative = -9.50107e-06
smoothSolver:  Solving for T, Initial residual = 0.0189915, Final residual = 0.000533555, No Iterations 2
ExecutionTime = 0.3 s  ClockTime = 0 s

surfaceFieldValue outletBulkTemperature write:
    weightedAverage(outlet) of T = 294.003

Time = 40

smoothSolver:  Solving for Ux, Initial residual = 0.0144487, Final residual = 0.000656957, No Iterations 2
smoothSolver:  Solving for Uy, Initial residual = 0.0120449, Final residual = 0.000510305, No Iterations 2
GAMG:  Solving for p, Initial residual = 0.0434302, Final residual = 0.00037674, No Iterations 4
time step continuity errors : sum local = 1.71513e-05, global = -1.49577e-07, cumulative = -9.65065e-06
smoothSolver:  Solving for T, Initial residual = 0.0186601, Final residual = 0.00053214, No Iterations 2
ExecutionTime = 0.3 s  ClockTime = 0 s

surfaceFieldValue outletBulkTemperature write:
    weightedAverage(outlet) of T = 294.294

Time = 41

smoothSolver:  Solving for Ux, Initial residual = 0.0141372, Final residual = 0.000673868, No Iterations 2
smoothSolver:  Solving for Uy, Initial residual = 0.0119771, Final residual = 0.0005141, No Iterations 2
GAMG:  Solving for p, Initial residual = 0.0418398, Final residual = 0.000376277, No Iterations 4
time step continuity errors : sum local = 1.72442e-05, global = -1.64554e-06, cumulative = -1.12962e-05
smoothSolver:  Solving for T, Initial residual = 0.0182748, Final residual = 0.0005333, No Iterations 2
ExecutionTime = 0.32 s  ClockTime = 0 s

surfaceFieldValue outletBulkTemperature write:
    weightedAverage(outlet) of T = 294.645

Time = 42

smoothSolver:  Solving for Ux, Initial residual = 0.0138271, Final residual = 0.00068411, No Iterations 2
smoothSolver:  Solving for Uy, Initial residual = 0.011893, Final residual = 0.00052103, No Iterations 2
GAMG:  Solving for p, Initial residual = 0.0409372, Final residual = 0.000349581, No Iterations 4
time step continuity errors : sum local = 1.60028e-05, global = -1.31477e-06, cumulative = -1.26109e-05
smoothSolver:  Solving for T, Initial residual = 0.0178636, Final residual = 0.000535421, No Iterations 2
ExecutionTime = 0.32 s  ClockTime = 0 s

surfaceFieldValue outletBulkTemperature write:
    weightedAverage(outlet) of T = 295.059

Time = 43

smoothSolver:  Solving for Ux, Initial residual = 0.0136104, Final residual = 0.000703629, No Iterations 2
smoothSolver:  Solving for Uy, Initial residual = 0.0117955, Final residual = 0.000531917, No Iterations 2
GAMG:  Solving for p, Initial residual = 0.0411105, Final residual = 0.000273198, No Iterations 4
time step continuity errors : sum local = 1.29452e-05, global = -2.42148e-07, cumulative = -1.28531e-05
smoothSolver:  Solving for T, Initial residual = 0.0173888, Final residual = 0.00053389, No Iterations 2
ExecutionTime = 0.32 s  ClockTime = 0 s

surfaceFieldValue outletBulkTemperature write:
    weightedAverage(outlet) of T = 295.541

Time = 44

smoothSolver:  Solving for Ux, Initial residual = 0.0134492, Final residual = 0.000727139, No Iterations 2
smoothSolver:  Solving for Uy, Initial residual = 0.0116813, Final residual = 0.000545391, No Iterations 2
GAMG:  Solving for p, Initial residual = 0.0407195, Final residual = 0.000237121, No Iterations 4
time step continuity errors : sum local = 1.15053e-05, global = 7.32647e-07, cumulative = -1.21205e-05
smoothSolver:  Solving for T, Initial residual = 0.0168434, Final residual = 0.000528059, No Iterations 2
ExecutionTime = 0.33 s  ClockTime = 0 s

surfaceFieldValue outletBulkTemperature write:
    weightedAverage(outlet) of T = 296.092

Time = 45

smoothSolver:  Solving for Ux, Initial residual = 0.0132905, Final residual = 0.000746612, No Iterations 2
smoothSolver:  Solving for Uy, Initial residual = 0.0115569, Final residual = 0.000557506, No Iterations 2
GAMG:  Solving for p, Initial residual = 0.0414866, Final residual = 0.000225366, No Iterations 4
time step continuity errors : sum local = 1.1213e-05, global = 1.22819e-06, cumulative = -1.08923e-05
smoothSolver:  Solving for T, Initial residual = 0.0162518, Final residual = 0.000518461, No Iterations 2
ExecutionTime = 0.33 s  ClockTime = 0 s

surfaceFieldValue outletBulkTemperature write:
    weightedAverage(outlet) of T = 296.714

Time = 46

smoothSolver:  Solving for Ux, Initial residual = 0.0131846, Final residual = 0.000762962, No Iterations 2
smoothSolver:  Solving for Uy, Initial residual = 0.011426, Final residual = 0.000565449, No Iterations 2
GAMG:  Solving for p, Initial residual = 0.0425049, Final residual = 0.000241706, No Iterations 4
time step continuity errors : sum local = 1.20232e-05, global = 1.10615e-06, cumulative = -9.78611e-06
smoothSolver:  Solving for T, Initial residual = 0.0156165, Final residual = 0.00050657, No Iterations 2
ExecutionTime = 0.36 s  ClockTime = 0 s

surfaceFieldValue outletBulkTemperature write:
    weightedAverage(outlet) of T = 297.404

Time = 47

smoothSolver:  Solving for Ux, Initial residual = 0.0131518, Final residual = 0.000773242, No Iterations 2
smoothSolver:  Solving for Uy, Initial residual = 0.0112638, Final residual = 0.000569915, No Iterations 2
GAMG:  Solving for p, Initial residual = 0.046374, Final residual = 0.000268489, No Iterations 4
time step continuity errors : sum local = 1.36179e-05, global = 6.49859e-07, cumulative = -9.13626e-06
smoothSolver:  Solving for T, Initial residual = 0.0149319, Final residual = 0.000489707, No Iterations 2
ExecutionTime = 0.36 s  ClockTime = 0 s

surfaceFieldValue outletBulkTemperature write:
    weightedAverage(outlet) of T = 298.159

Time = 48

smoothSolver:  Solving for Ux, Initial residual = 0.0131199, Final residual = 0.000779562, No Iterations 2
smoothSolver:  Solving for Uy, Initial residual = 0.0111174, Final residual = 0.00057182, No Iterations 2
GAMG:  Solving for p, Initial residual = 0.0511681, Final residual = 0.000287735, No Iterations 4
time step continuity errors : sum local = 1.48061e-05, global = -1.02568e-09, cumulative = -9.13728e-06
smoothSolver:  Solving for T, Initial residual = 0.0142296, Final residual = 0.000468901, No Iterations 2
ExecutionTime = 0.36 s  ClockTime = 0 s

surfaceFieldValue outletBulkTemperature write:
    weightedAverage(outlet) of T = 298.971

Time = 49

smoothSolver:  Solving for Ux, Initial residual = 0.0131524, Final residual = 0.000782489, No Iterations 2
smoothSolver:  Solving for Uy, Initial residual = 0.0109553, Final residual = 0.00056854, No Iterations 2
GAMG:  Solving for p, Initial residual = 0.0515809, Final residual = 0.000300638, No Iterations 4
time step continuity errors : sum local = 1.55293e-05, global = -8.77055e-07, cumulative = -1.00143e-05
smoothSolver:  Solving for T, Initial residual = 0.0135129, Final residual = 0.000442836, No Iterations 2
ExecutionTime = 0.38 s  ClockTime = 0 s

surfaceFieldValue outletBulkTemperature write:
    weightedAverage(outlet) of T = 299.83

Time = 50

smoothSolver:  Solving for Ux, Initial residual = 0.0131813, Final residual = 0.000779411, No Iterations 2
smoothSolver:  Solving for Uy, Initial residual = 0.0108021, Final residual = 0.000564417, No Iterations 2
GAMG:  Solving for p, Initial residual = 0.0520622, Final residual = 0.000251673, No Iterations 4
time step continuity errors : sum local = 1.31687e-05, global = -1.3624e-06, cumulative = -1.13767e-05
smoothSolver:  Solving for T, Initial residual = 0.0127943, Final residual = 0.00041472, No Iterations 2
ExecutionTime = 0.38 s  ClockTime = 0 s

surfaceFieldValue outletBulkTemperature write:
    weightedAverage(outlet) of T = 300.724

Time = 51

smoothSolver:  Solving for Ux, Initial residual = 0.01323, Final residual = 0.000773529, No Iterations 2
smoothSolver:  Solving for Uy, Initial residual = 0.0106337, Final residual = 0.000557006, No Iterations 2
GAMG:  Solving for p, Initial residual = 0.0544734, Final residual = 0.000230103, No Iterations 4
time step continuity errors : sum local = 1.21342e-05, global = -1.95511e-06, cumulative = -1.33318e-05
smoothSolver:  Solving for T, Initial residual = 0.0120925, Final residual = 0.000383819, No Iterations 2
ExecutionTime = 0.4 s  ClockTime = 0 s

surfaceFieldValue outletBulkTemperature write:
    weightedAverage(outlet) of T = 301.632

Time = 52

smoothSolver:  Solving for Ux, Initial residual = 0.0132873, Final residual = 0.000772429, No Iterations 2
smoothSolver:  Solving for Uy, Initial residual = 0.0104607, Final residual = 0.000544457, No Iterations 2
GAMG:  Solving for p, Initial residual = 0.0563628, Final residual = 0.000240033, No Iterations 4
time step continuity errors : sum local = 1.30597e-05, global = -2.88735e-06, cumulative = -1.62192e-05
smoothSolver:  Solving for T, Initial residual = 0.0114078, Final residual = 0.000353224, No Iterations 2
ExecutionTime = 0.4 s  ClockTime = 0 s

surfaceFieldValue outletBulkTemperature write:
    weightedAverage(outlet) of T = 302.527

Time = 53

smoothSolver:  Solving for Ux, Initial residual = 0.0133403, Final residual = 0.000777951, No Iterations 2
smoothSolver:  Solving for Uy, Initial residual = 0.010304, Final residual = 0.000530177, No Iterations 2
GAMG:  Solving for p, Initial residual = 0.0525185, Final residual = 0.000237003, No Iterations 4
time step continuity errors : sum local = 1.30009e-05, global = -2.6517e-06, cumulative = -1.88709e-05
smoothSolver:  Solving for T, Initial residual = 0.0107856, Final residual = 0.000328396, No Iterations 2
ExecutionTime = 0.4 s  ClockTime = 0 s

surfaceFieldValue outletBulkTemperature write:
    weightedAverage(outlet) of T = 303.361

Time = 54

smoothSolver:  Solving for Ux, Initial residual = 0.0134368, Final residual = 0.000777166, No Iterations 2
smoothSolver:  Solving for Uy, Initial residual = 0.0101526, Final residual = 0.000511081, No Iterations 2
GAMG:  Solving for p, Initial residual = 0.0499921, Final residual = 0.00021967, No Iterations 4
time step continuity errors : sum local = 1.25133e-05, global = -8.63753e-07, cumulative = -1.97346e-05
smoothSolver:  Solving for T, Initial residual = 0.0102565, Final residual = 0.000314191, No Iterations 2
ExecutionTime = 0.42 s  ClockTime = 0 s

surfaceFieldValue outletBulkTemperature write:
    weightedAverage(outlet) of T = 304.065

Time = 55

smoothSolver:  Solving for Ux, Initial residual = 0.0135108, Final residual = 0.000750131, No Iterations 2
smoothSolver:  Solving for Uy, Initial residual = 0.00998812, Final residual = 0.000486895, No Iterations 2
GAMG:  Solving for p, Initial residual = 0.047626, Final residual = 0.000226888, No Iterations 4
time step continuity errors : sum local = 1.33527e-05, global = 1.64915e-06, cumulative = -1.80855e-05
smoothSolver:  Solving for T, Initial residual = 0.00985569, Final residual = 0.00029776, No Iterations 2
ExecutionTime = 0.42 s  ClockTime = 0 s

surfaceFieldValue outletBulkTemperature write:
    weightedAverage(outlet) of T = 304.555

Time = 56

smoothSolver:  Solving for Ux, Initial residual = 0.0134967, Final residual = 0.000701786, No Iterations 2
smoothSolver:  Solving for Uy, Initial residual = 0.00975289, Final residual = 0.000456344, No Iterations 2
GAMG:  Solving for p, Initial residual = 0.0438712, Final residual = 0.000249447, No Iterations 4
time step continuity errors : sum local = 1.55575e-05, global = 3.37221e-06, cumulative = -1.47133e-05
smoothSolver:  Solving for T, Initial residual = 0.0094959, Final residual = 0.000911067, No Iterations 1
ExecutionTime = 0.43 s  ClockTime = 0 s

surfaceFieldValue outletBulkTemperature write:
    weightedAverage(outlet) of T = 304.806

Time = 57

smoothSolver:  Solving for Ux, Initial residual = 0.0133002, Final residual = 0.000654362, No Iterations 2
smoothSolver:  Solving for Uy, Initial residual = 0.00945722, Final residual = 0.000425899, No Iterations 2
GAMG:  Solving for p, Initial residual = 0.039474, Final residual = 0.000188427, No Iterations 4
time step continuity errors : sum local = 1.26856e-05, global = 1.21598e-07, cumulative = -1.45917e-05
smoothSolver:  Solving for T, Initial residual = 0.00920077, Final residual = 0.000812974, No Iterations 1
ExecutionTime = 0.43 s  ClockTime = 0 s

surfaceFieldValue outletBulkTemperature write:
    weightedAverage(outlet) of T = 304.788

Time = 58

smoothSolver:  Solving for Ux, Initial residual = 0.0129105, Final residual = 0.000620224, No Iterations 2
smoothSolver:  Solving for Uy, Initial residual = 0.00907468, Final residual = 0.000405599, No Iterations 2
GAMG:  Solving for p, Initial residual = 0.0354074, Final residual = 0.000159508, No Iterations 4
time step continuity errors : sum local = 1.15795e-05, global = -9.23505e-07, cumulative = -1.55152e-05
smoothSolver:  Solving for T, Initial residual = 0.00878084, Final residual = 0.000724464, No Iterations 1
ExecutionTime = 0.43 s  ClockTime = 0 s

surfaceFieldValue outletBulkTemperature write:
    weightedAverage(outlet) of T = 304.512

Time = 59

smoothSolver:  Solving for Ux, Initial residual = 0.0124056, Final residual = 0.00060077, No Iterations 2
smoothSolver:  Solving for Uy, Initial residual = 0.00862093, Final residual = 0.000395767, No Iterations 2
GAMG:  Solving for p, Initial residual = 0.036731, Final residual = 0.000163736, No Iterations 4
time step continuity errors : sum local = 1.10863e-05, global = 6.34866e-07, cumulative = -1.48803e-05
smoothSolver:  Solving for T, Initial residual = 0.00824012, Final residual = 0.000651366, No Iterations 1
ExecutionTime = 0.45 s  ClockTime = 0 s

surfaceFieldValue outletBulkTemperature write:
    weightedAverage(outlet) of T = 304.035

Time = 60

smoothSolver:  Solving for Ux, Initial residual = 0.011828, Final residual = 0.000586289, No Iterations 2
smoothSolver:  Solving for Uy, Initial residual = 0.00809396, Final residual = 0.000387087, No Iterations 2
GAMG:  Solving for p, Initial residual = 0.0385875, Final residual = 0.000187842, No Iterations 4
time step continuity errors : sum local = 1.24446e-05, global = 1.69879e-06, cumulative = -1.31815e-05
smoothSolver:  Solving for T, Initial residual = 0.00761156, Final residual = 0.000600056, No Iterations 1
ExecutionTime = 0.45 s  ClockTime = 0 s

surfaceFieldValue outletBulkTemperature write:
    weightedAverage(outlet) of T = 303.444

Time = 61

smoothSolver:  Solving for Ux, Initial residual = 0.0112303, Final residual = 0.0005778, No Iterations 2
smoothSolver:  Solving for Uy, Initial residual = 0.00752924, Final residual = 0.000383088, No Iterations 2
GAMG:  Solving for p, Initial residual = 0.0359266, Final residual = 0.000201701, No Iterations 4
time step continuity errors : sum local = 1.28842e-05, global = 2.28254e-06, cumulative = -1.0899e-05
smoothSolver:  Solving for T, Initial residual = 0.00694128, Final residual = 0.000569616, No Iterations 1
ExecutionTime = 0.46 s  ClockTime = 0 s

surfaceFieldValue outletBulkTemperature write:
    weightedAverage(outlet) of T = 302.819

Time = 62

smoothSolver:  Solving for Ux, Initial residual = 0.0106244, Final residual = 0.000574399, No Iterations 2
smoothSolver:  Solving for Uy, Initial residual = 0.00693957, Final residual = 0.000381267, No Iterations 2
GAMG:  Solving for p, Initial residual = 0.0352588, Final residual = 0.000221542, No Iterations 4
time step continuity errors : sum local = 1.4012e-05, global = 3.63889e-06, cumulative = -7.2601e-06
smoothSolver:  Solving for T, Initial residual = 0.00629478, Final residual = 0.000558575, No Iterations 1
ExecutionTime = 0.46 s  ClockTime = 0 s

surfaceFieldValue outletBulkTemperature write:
    weightedAverage(outlet) of T = 302.228

Time = 63

smoothSolver:  Solving for Ux, Initial residual = 0.0100614, Final residual = 0.000571207, No Iterations 2
smoothSolver:  Solving for Uy, Initial residual = 0.0063542, Final residual = 0.000380027, No Iterations 2
GAMG:  Solving for p, Initial residual = 0.0346354, Final residual = 0.000235571, No Iterations 4
time step continuity errors : sum local = 1.51932e-05, global = 4.54942e-06, cumulative = -2.71068e-06
smoothSolver:  Solving for T, Initial residual = 0.00570811, Final residual = 0.000559599, No Iterations 1
ExecutionTime = 0.46 s  ClockTime = 0 s

surfaceFieldValue outletBulkTemperature write:
    weightedAverage(outlet) of T = 301.721

Time = 64

smoothSolver:  Solving for Ux, Initial residual = 0.00956324, Final residual = 0.000569678, No Iterations 2
smoothSolver:  Solving for Uy, Initial residual = 0.00582509, Final residual = 0.000380562, No Iterations 2
GAMG:  Solving for p, Initial residual = 0.029421, Final residual = 0.000230553, No Iterations 4
time step continuity errors : sum local = 1.5222e-05, global = 5.23495e-06, cumulative = 2.52427e-06
smoothSolver:  Solving for T, Initial residual = 0.00522383, Final residual = 0.000248155, No Iterations 2
ExecutionTime = 0.48 s  ClockTime = 0 s

surfaceFieldValue outletBulkTemperature write:
    weightedAverage(outlet) of T = 301.331

Time = 65

smoothSolver:  Solving for Ux, Initial residual = 0.00908854, Final residual = 0.000568021, No Iterations 2
smoothSolver:  Solving for Uy, Initial residual = 0.00539448, Final residual = 0.000379198, No Iterations 2
GAMG:  Solving for p, Initial residual = 0.0306645, Final residual = 0.00022194, No Iterations 4
time step continuity errors : sum local = 1.3413e-05, global = 4.01694e-06, cumulative = 6.54121e-06
smoothSolver:  Solving for T, Initial residual = 0.00487848, Final residual = 0.000247522, No Iterations 2
ExecutionTime = 0.48 s  ClockTime = 0 s

surfaceFieldValue outletBulkTemperature write:
    weightedAverage(outlet) of T = 301.079

Time = 66

smoothSolver:  Solving for Ux, Initial residual = 0.00860913, Final residual = 0.00056948, No Iterations 2
smoothSolver:  Solving for Uy, Initial residual = 0.00508912, Final residual = 0.000380893, No Iterations 2
GAMG:  Solving for p, Initial residual = 0.032821, Final residual = 0.000224452, No Iterations 4
time step continuity errors : sum local = 1.31802e-05, global = 2.84758e-06, cumulative = 9.38879e-06
smoothSolver:  Solving for T, Initial residual = 0.00461037, Final residual = 0.000241598, No Iterations 2
ExecutionTime = 0.49 s  ClockTime = 0 s

surfaceFieldValue outletBulkTemperature write:
    weightedAverage(outlet) of T = 300.972

Time = 67

smoothSolver:  Solving for Ux, Initial residual = 0.00810556, Final residual = 0.000567075, No Iterations 2
smoothSolver:  Solving for Uy, Initial residual = 0.00488628, Final residual = 0.000381983, No Iterations 2
GAMG:  Solving for p, Initial residual = 0.0304041, Final residual = 0.000202007, No Iterations 4
time step continuity errors : sum local = 1.23228e-05, global = 2.04336e-06, cumulative = 1.14322e-05
smoothSolver:  Solving for T, Initial residual = 0.00440323, Final residual = 0.000236909, No Iterations 2
ExecutionTime = 0.49 s  ClockTime = 0 s

surfaceFieldValue outletBulkTemperature write:
    weightedAverage(outlet) of T = 301.008

Time = 68

smoothSolver:  Solving for Ux, Initial residual = 0.00765718, Final residual = 0.000566899, No Iterations 2
smoothSolver:  Solving for Uy, Initial residual = 0.00477461, Final residual = 0.000384106, No Iterations 2
GAMG:  Solving for p, Initial residual = 0.0299035, Final residual = 0.000204924, No Iterations 4
time step continuity errors : sum local = 1.1984e-05, global = 1.94481e-06, cumulative = 1.3377e-05
smoothSolver:  Solving for T, Initial residual = 0.00422404, Final residual = 0.000228548, No Iterations 2
ExecutionTime = 0.49 s  ClockTime = 0 s

surfaceFieldValue outletBulkTemperature write:
    weightedAverage(outlet) of T = 301.167

Time = 69

smoothSolver:  Solving for Ux, Initial residual = 0.00725115, Final residual = 0.000564728, No Iterations 2
smoothSolver:  Solving for Uy, Initial residual = 0.00467528, Final residual = 0.00038427, No Iterations 2
GAMG:  Solving for p, Initial residual = 0.0290935, Final residual = 0.000206351, No Iterations 4
time step continuity errors : sum local = 1.17985e-05, global = 1.74731e-06, cumulative = 1.51243e-05
smoothSolver:  Solving for T, Initial residual = 0.00402484, Final residual = 0.000219315, No Iterations 2
ExecutionTime = 0.51 s  ClockTime = 0 s

surfaceFieldValue outletBulkTemperature write:
    weightedAverage(outlet) of T = 301.408

Time = 70

smoothSolver:  Solving for Ux, Initial residual = 0.00694337, Final residual = 0.000561759, No Iterations 2
smoothSolver:  Solving for Uy, Initial residual = 0.00457416, Final residual = 0.000383467, No Iterations 2
GAMG:  Solving for p, Initial residual = 0.0293635, Final residual = 0.000210775, No Iterations 4
time step continuity errors : sum local = 1.17685e-05, global = 1.88227e-06, cumulative = 1.70065e-05
smoothSolver:  Solving for T, Initial residual = 0.00379668, Final residual = 0.00020995, No Iterations 2
ExecutionTime = 0.51 s  ClockTime = 0 s

surfaceFieldValue outletBulkTemperature write:
    weightedAverage(outlet) of T = 301.684

Time = 71

smoothSolver:  Solving for Ux, Initial residual = 0.00672556, Final residual = 0.000557104, No Iterations 2
smoothSolver:  Solving for Uy, Initial residual = 0.00445897, Final residual = 0.000380595, No Iterations 2
GAMG:  Solving for p, Initial residual = 0.0285009, Final residual = 0.000213504, No Iterations 4
time step continuity errors : sum local = 1.18165e-05, global = 1.80008e-06, cumulative = 1.88066e-05
smoothSolver:  Solving for T, Initial residual = 0.00355237, Final residual = 0.000198778, No Iterations 2
ExecutionTime = 0.53 s  ClockTime = 0 s

surfaceFieldValue outletBulkTemperature write:
    weightedAverage(outlet) of T = 301.948

Time = 72

smoothSolver:  Solving for Ux, Initial residual = 0.00657694, Final residual = 0.000552159, No Iterations 2
smoothSolver:  Solving for Uy, Initial residual = 0.00434877, Final residual = 0.000378371, No Iterations 2
GAMG:  Solving for p, Initial residual = 0.0263168, Final residual = 0.000200196, No Iterations 4
time step continuity errors : sum local = 1.20486e-05, global = 1.79589e-06, cumulative = 2.06025e-05
smoothSolver:  Solving for T, Initial residual = 0.0033183, Final residual = 0.000187432, No Iterations 2
ExecutionTime = 0.53 s  ClockTime = 0 s

surfaceFieldValue outletBulkTemperature write:
    weightedAverage(outlet) of T = 302.165

Time = 73

smoothSolver:  Solving for Ux, Initial residual = 0.00642927, Final residual = 0.000546136, No Iterations 2
smoothSolver:  Solving for Uy, Initial residual = 0.00423617, Final residual = 0.000374325, No Iterations 2
GAMG:  Solving for p, Initial residual = 0.0272101, Final residual = 0.000199029, No Iterations 4
time step continuity errors : sum local = 1.12174e-05, global = 1.37229e-06, cumulative = 2.19748e-05
smoothSolver:  Solving for T, Initial residual = 0.00310593, Final residual = 0.000176041, No Iterations 2
ExecutionTime = 0.54 s  ClockTime = 0 s

surfaceFieldValue outletBulkTemperature write:
    weightedAverage(outlet) of T = 302.313

Time = 74

smoothSolver:  Solving for Ux, Initial residual = 0.00632834, Final residual = 0.000540385, No Iterations 2
smoothSolver:  Solving for Uy, Initial residual = 0.00414199, Final residual = 0.000371144, No Iterations 2
GAMG:  Solving for p, Initial residual = 0.0274673, Final residual = 0.000185966, No Iterations 4
time step continuity errors : sum local = 1.02669e-05, global = 1.07431e-06, cumulative = 2.30491e-05
smoothSolver:  Solving for T, Initial residual = 0.00292027, Final residual = 0.000165768, No Iterations 2
ExecutionTime = 0.54 s  ClockTime = 0 s

surfaceFieldValue outletBulkTemperature write:
    weightedAverage(outlet) of T = 302.385

Time = 75

smoothSolver:  Solving for Ux, Initial residual = 0.00623349, Final residual = 0.000536603, No Iterations 2
smoothSolver:  Solving for Uy, Initial residual = 0.00405313, Final residual = 0.000367357, No Iterations 2
GAMG:  Solving for p, Initial residual = 0.0276938, Final residual = 0.000185044, No Iterations 4
time step continuity errors : sum local = 1.01338e-05, global = 9.53239e-07, cumulative = 2.40024e-05
smoothSolver:  Solving for T, Initial residual = 0.00276054, Final residual = 0.00016062, No Iterations 2
ExecutionTime = 0.54 s  ClockTime = 0 s

surfaceFieldValue outletBulkTemperature write:
    weightedAverage(outlet) of T = 302.391

Time = 76

smoothSolver:  Solving for Ux, Initial residual = 0.00618228, Final residual = 0.00053464, No Iterations 2
smoothSolver:  Solving for Uy, Initial residual = 0.00397187, Final residual = 0.000365264, No Iterations 2
GAMG:  Solving for p, Initial residual = 0.0278563, Final residual = 0.000187517, No Iterations 4
time step continuity errors : sum local = 1.02544e-05, global = 9.13805e-07, cumulative = 2.49162e-05
smoothSolver:  Solving for T, Initial residual = 0.00263121, Final residual = 0.000158732, No Iterations 2
ExecutionTime = 0.56 s  ClockTime = 0 s

surfaceFieldValue outletBulkTemperature write:
    weightedAverage(outlet) of T = 302.345

Time = 77

smoothSolver:  Solving for Ux, Initial residual = 0.00612279, Final residual = 0.000533097, No Iterations 2
smoothSolver:  Solving for Uy, Initial residual = 0.00388646, Final residual = 0.000364068, No Iterations 2
GAMG:  Solving for p, Initial residual = 0.0274591, Final residual = 0.000195611, No Iterations 4
time step continuity errors : sum local = 1.06456e-05, global = 7.79183e-07, cumulative = 2.56953e-05
smoothSolver:  Solving for T, Initial residual = 0.00252678, Final residual = 0.000158716, No Iterations 2
ExecutionTime = 0.56 s  ClockTime = 0 s

surfaceFieldValue outletBulkTemperature write:
    weightedAverage(outlet) of T = 302.268

Time = 78

smoothSolver:  Solving for Ux, Initial residual = 0.00609282, Final residual = 0.000532195, No Iterations 2
smoothSolver:  Solving for Uy, Initial residual = 0.00380414, Final residual = 0.000363413, No Iterations 2
GAMG:  Solving for p, Initial residual = 0.0265122, Final residual = 0.000193883, No Iterations 4
time step continuity errors : sum local = 1.0545e-05, global = 5.72431e-07, cumulative = 2.62678e-05
smoothSolver:  Solving for T, Initial residual = 0.00243328, Final residual = 0.000160443, No Iterations 2
ExecutionTime = 0.57 s  ClockTime = 1 s

surfaceFieldValue outletBulkTemperature write:
    weightedAverage(outlet) of T = 302.176

Time = 79

smoothSolver:  Solving for Ux, Initial residual = 0.00605749, Final residual = 0.000533922, No Iterations 2
smoothSolver:  Solving for Uy, Initial residual = 0.00372255, Final residual = 0.000362872, No Iterations 2
GAMG:  Solving for p, Initial residual = 0.0270367, Final residual = 0.000179886, No Iterations 4
time step continuity errors : sum local = 9.81713e-06, global = -3.02725e-08, cumulative = 2.62375e-05
smoothSolver:  Solving for T, Initial residual = 0.00235842, Final residual = 0.000163468, No Iterations 2
ExecutionTime = 0.57 s  ClockTime = 1 s

surfaceFieldValue outletBulkTemperature write:
    weightedAverage(outlet) of T = 302.085

Time = 80

smoothSolver:  Solving for Ux, Initial residual = 0.00602751, Final residual = 0.000535903, No Iterations 2
smoothSolver:  Solving for Uy, Initial residual = 0.00363906, Final residual = 0.000362066, No Iterations 2
GAMG:  Solving for p, Initial residual = 0.0260978, Final residual = 0.000192123, No Iterations 4
time step continuity errors : sum local = 1.03958e-05, global = -1.59327e-07, cumulative = 2.60782e-05
smoothSolver:  Solving for T, Initial residual = 0.00229725, Final residual = 0.000167006, No Iterations 2
ExecutionTime = 0.57 s  ClockTime = 1 s

surfaceFieldValue outletBulkTemperature write:
    weightedAverage(outlet) of T = 302.003

Time = 81

smoothSolver:  Solving for Ux, Initial residual = 0.0059777, Final residual = 0.00053987, No Iterations 2
smoothSolver:  Solving for Uy, Initial residual = 0.00357021, Final residual = 0.000200641, No Iterations 3
GAMG:  Solving for p, Initial residual = 0.0275232, Final residual = 0.000231786, No Iterations 4
time step continuity errors : sum local = 1.24539e-05, global = -4.47748e-07, cumulative = 2.56304e-05
smoothSolver:  Solving for T, Initial residual = 0.00225071, Final residual = 0.000169466, No Iterations 2
ExecutionTime = 0.59 s  ClockTime = 1 s

surfaceFieldValue outletBulkTemperature write:
    weightedAverage(outlet) of T = 301.938

Time = 82

smoothSolver:  Solving for Ux, Initial residual = 0.00603539, Final residual = 0.000558948, No Iterations 2
smoothSolver:  Solving for Uy, Initial residual = 0.00348705, Final residual = 0.000348609, No Iterations 2
GAMG:  Solving for p, Initial residual = 0.0264778, Final residual = 0.000193393, No Iterations 4
time step continuity errors : sum local = 1.0424e-05, global = -4.12788e-07, cumulative = 2.52176e-05
smoothSolver:  Solving for T, Initial residual = 0.0022193, Final residual = 0.000170003, No Iterations 2
ExecutionTime = 0.59 s  ClockTime = 1 s

surfaceFieldValue outletBulkTemperature write:
    weightedAverage(outlet) of T = 301.892

Time = 83

smoothSolver:  Solving for Ux, Initial residual = 0.00590921, Final residual = 0.000553303, No Iterations 2
smoothSolver:  Solving for Uy, Initial residual = 0.00343996, Final residual = 0.000196023, No Iterations 3
GAMG:  Solving for p, Initial residual = 0.0299965, Final residual = 0.000221658, No Iterations 4
time step continuity errors : sum local = 1.20902e-05, global = -4.0705e-07, cumulative = 2.48106e-05
smoothSolver:  Solving for T, Initial residual = 0.00219457, Final residual = 0.000168903, No Iterations 2
ExecutionTime = 0.6 s  ClockTime = 1 s

surfaceFieldValue outletBulkTemperature write:
    weightedAverage(outlet) of T = 301.864

Time = 84

smoothSolver:  Solving for Ux, Initial residual = 0.0059444, Final residual = 0.000566957, No Iterations 2
smoothSolver:  Solving for Uy, Initial residual = 0.00337352, Final residual = 0.000188235, No Iterations 3
GAMG:  Solving for p, Initial residual = 0.0389374, Final residual = 0.000198778, No Iterations 4
time step continuity errors : sum local = 1.14059e-05, global = -5.43811e-07, cumulative = 2.42668e-05
smoothSolver:  Solving for T, Initial residual = 0.00220974, Final residual = 0.000169844, No Iterations 2
ExecutionTime = 0.6 s  ClockTime = 1 s

surfaceFieldValue outletBulkTemperature write:
    weightedAverage(outlet) of T = 301.851

Time = 85

smoothSolver:  Solving for Ux, Initial residual = 0.00590129, Final residual = 0.000573129, No Iterations 2
smoothSolver:  Solving for Uy, Initial residual = 0.00333439, Final residual = 0.000183945, No Iterations 3
GAMG:  Solving for p, Initial residual = 0.0289421, Final residual = 0.000206866, No Iterations 4
time step continuity errors : sum local = 1.0944e-05, global = -8.78608e-07, cumulative = 2.33882e-05
smoothSolver:  Solving for T, Initial residual = 0.00221119, Final residual = 0.000173637, No Iterations 2
ExecutionTime = 0.6 s  ClockTime = 1 s

surfaceFieldValue outletBulkTemperature write:
    weightedAverage(outlet) of T = 301.849

Time = 86

smoothSolver:  Solving for Ux, Initial residual = 0.00581653, Final residual = 0.000576886, No Iterations 2
smoothSolver:  Solving for Uy, Initial residual = 0.00329989, Final residual = 0.000183999, No Iterations 3
GAMG:  Solving for p, Initial residual = 0.0247507, Final residual = 0.000224522, No Iterations 4
time step continuity errors : sum local = 1.15995e-05, global = -1.06367e-06, cumulative = 2.23245e-05
smoothSolver:  Solving for T, Initial residual = 0.00218466, Final residual = 0.000175265, No Iterations 2
ExecutionTime = 0.62 s  ClockTime = 1 s

surfaceFieldValue outletBulkTemperature write:
    weightedAverage(outlet) of T = 301.851

Time = 87

smoothSolver:  Solving for Ux, Initial residual = 0.00570222, Final residual = 0.00029355, No Iterations 3
smoothSolver:  Solving for Uy, Initial residual = 0.00325077, Final residual = 0.000180852, No Iterations 3
GAMG:  Solving for p, Initial residual = 0.0247974, Final residual = 0.000244541, No Iterations 4
time step continuity errors : sum local = 1.2691e-05, global = -1.6232e-06, cumulative = 2.07013e-05
smoothSolver:  Solving for T, Initial residual = 0.00217075, Final residual = 0.000175983, No Iterations 2
ExecutionTime = 0.62 s  ClockTime = 1 s

surfaceFieldValue outletBulkTemperature write:
    weightedAverage(outlet) of T = 301.855

Time = 88

smoothSolver:  Solving for Ux, Initial residual = 0.00552694, Final residual = 0.000549708, No Iterations 2
smoothSolver:  Solving for Uy, Initial residual = 0.00324993, Final residual = 0.000183281, No Iterations 3
GAMG:  Solving for p, Initial residual = 0.0235873, Final residual = 0.00019975, No Iterations 4
time step continuity errors : sum local = 1.03551e-05, global = -1.30753e-06, cumulative = 1.93938e-05
smoothSolver:  Solving for T, Initial residual = 0.00213476, Final residual = 0.000173417, No Iterations 2
ExecutionTime = 0.64 s  ClockTime = 1 s

surfaceFieldValue outletBulkTemperature write:
    weightedAverage(outlet) of T = 301.857

Time = 89

smoothSolver:  Solving for Ux, Initial residual = 0.00544759, Final residual = 0.000282643, No Iterations 3
smoothSolver:  Solving for Uy, Initial residual = 0.00321062, Final residual = 0.000181501, No Iterations 3
GAMG:  Solving for p, Initial residual = 0.0224571, Final residual = 0.000213577, No Iterations 4
time step continuity errors : sum local = 1.11277e-05, global = -1.45355e-06, cumulative = 1.79402e-05
smoothSolver:  Solving for T, Initial residual = 0.00213833, Final residual = 0.000170153, No Iterations 2
ExecutionTime = 0.64 s  ClockTime = 1 s

surfaceFieldValue outletBulkTemperature write:
    weightedAverage(outlet) of T = 301.858

Time = 90

smoothSolver:  Solving for Ux, Initial residual = 0.00528671, Final residual = 0.000267909, No Iterations 3
smoothSolver:  Solving for Uy, Initial residual = 0.00322062, Final residual = 0.000182601, No Iterations 3
GAMG:  Solving for p, Initial residual = 0.0218022, Final residual = 0.000183236, No Iterations 4
time step continuity errors : sum local = 9.6001e-06, global = -1.07069e-06, cumulative = 1.68695e-05
smoothSolver:  Solving for T, Initial residual = 0.00213225, Final residual = 0.000165565, No Iterations 2
ExecutionTime = 0.64 s  ClockTime = 1 s

surfaceFieldValue outletBulkTemperature write:
    weightedAverage(outlet) of T = 301.857

Time = 91

smoothSolver:  Solving for Ux, Initial residual = 0.00514178, Final residual = 0.00025909, No Iterations 3
smoothSolver:  Solving for Uy, Initial residual = 0.00321589, Final residual = 0.000181989, No Iterations 3
GAMG:  Solving for p, Initial residual = 0.0206542, Final residual = 0.000161331, No Iterations 4
time step continuity errors : sum local = 8.43614e-06, global = -5.17746e-07, cumulative = 1.63518e-05
smoothSolver:  Solving for T, Initial residual = 0.00212308, Final residual = 0.000161147, No Iterations 2
ExecutionTime = 0.65 s  ClockTime = 1 s

surfaceFieldValue outletBulkTemperature write:
    weightedAverage(outlet) of T = 301.855

Time = 92

smoothSolver:  Solving for Ux, Initial residual = 0.00500112, Final residual = 0.000252211, No Iterations 3
smoothSolver:  Solving for Uy, Initial residual = 0.00321136, Final residual = 0.000180595, No Iterations 3
GAMG:  Solving for p, Initial residual = 0.0190457, Final residual = 0.000157779, No Iterations 4
time step continuity errors : sum local = 8.27057e-06, global = 4.55422e-07, cumulative = 1.68072e-05
smoothSolver:  Solving for T, Initial residual = 0.00211316, Final residual = 0.000156759, No Iterations 2
ExecutionTime = 0.65 s  ClockTime = 1 s

surfaceFieldValue outletBulkTemperature write:
    weightedAverage(outlet) of T = 301.853

Time = 93

smoothSolver:  Solving for Ux, Initial residual = 0.00485543, Final residual = 0.000246021, No Iterations 3
smoothSolver:  Solving for Uy, Initial residual = 0.00321131, Final residual = 0.000178969, No Iterations 3
GAMG:  Solving for p, Initial residual = 0.0182998, Final residual = 0.000180773, No Iterations 4
time step continuity errors : sum local = 9.55839e-06, global = 1.11508e-06, cumulative = 1.79223e-05
smoothSolver:  Solving for T, Initial residual = 0.00211161, Final residual = 0.00015213, No Iterations 2
ExecutionTime = 0.67 s  ClockTime = 1 s

surfaceFieldValue outletBulkTemperature write:
    weightedAverage(outlet) of T = 301.853

Time = 94

smoothSolver:  Solving for Ux, Initial residual = 0.00470852, Final residual = 0.000240499, No Iterations 3
smoothSolver:  Solving for Uy, Initial residual = 0.00319727, Final residual = 0.00031859, No Iterations 2
GAMG:  Solving for p, Initial residual = 0.0171732, Final residual = 7.83458e-05, No Iterations 5
time step continuity errors : sum local = 4.19428e-06, global = -1.14799e-06, cumulative = 1.67743e-05
smoothSolver:  Solving for T, Initial residual = 0.00211758, Final residual = 0.000147469, No Iterations 2
ExecutionTime = 0.67 s  ClockTime = 1 s

surfaceFieldValue outletBulkTemperature write:
    weightedAverage(outlet) of T = 301.857

Time = 95

smoothSolver:  Solving for Ux, Initial residual = 0.00447453, Final residual = 0.000442028, No Iterations 2
smoothSolver:  Solving for Uy, Initial residual = 0.00320022, Final residual = 0.000180793, No Iterations 3
GAMG:  Solving for p, Initial residual = 0.017047, Final residual = 0.000161653, No Iterations 4
time step continuity errors : sum local = 8.82573e-06, global = 2.42534e-07, cumulative = 1.70168e-05
smoothSolver:  Solving for T, Initial residual = 0.0021223, Final residual = 0.000141869, No Iterations 2
ExecutionTime = 0.69 s  ClockTime = 1 s

surfaceFieldValue outletBulkTemperature write:
    weightedAverage(outlet) of T = 301.859

Time = 96

smoothSolver:  Solving for Ux, Initial residual = 0.00448474, Final residual = 0.000242803, No Iterations 3
smoothSolver:  Solving for Uy, Initial residual = 0.00317552, Final residual = 0.000313814, No Iterations 2
GAMG:  Solving for p, Initial residual = 0.0162812, Final residual = 8.4229e-05, No Iterations 5
time step continuity errors : sum local = 4.62454e-06, global = -1.08486e-06, cumulative = 1.5932e-05
smoothSolver:  Solving for T, Initial residual = 0.00213286, Final residual = 0.000137092, No Iterations 2
ExecutionTime = 0.69 s  ClockTime = 1 s

surfaceFieldValue outletBulkTemperature write:
    weightedAverage(outlet) of T = 301.865

Time = 97

smoothSolver:  Solving for Ux, Initial residual = 0.00427948, Final residual = 0.000224044, No Iterations 3
smoothSolver:  Solving for Uy, Initial residual = 0.00319501, Final residual = 0.000316603, No Iterations 2
GAMG:  Solving for p, Initial residual = 0.0162934, Final residual = 0.000158485, No Iterations 4
time step continuity errors : sum local = 8.74013e-06, global = -1.39187e-07, cumulative = 1.57928e-05
smoothSolver:  Solving for T, Initial residual = 0.00215231, Final residual = 0.000132821, No Iterations 2
ExecutionTime = 0.69 s  ClockTime = 1 s

surfaceFieldValue outletBulkTemperature write:
    weightedAverage(outlet) of T = 301.869

Time = 98

smoothSolver:  Solving for Ux, Initial residual = 0.00422146, Final residual = 0.000416394, No Iterations 2
smoothSolver:  Solving for Uy, Initial residual = 0.00321341, Final residual = 0.00031718, No Iterations 2
GAMG:  Solving for p, Initial residual = 0.017344, Final residual = 0.000168152, No Iterations 4
time step continuity errors : sum local = 9.44169e-06, global = -1.22686e-06, cumulative = 1.45659e-05
smoothSolver:  Solving for T, Initial residual = 0.00217429, Final residual = 0.00012886, No Iterations 2
ExecutionTime = 0.7 s  ClockTime = 1 s

surfaceFieldValue outletBulkTemperature write:
    weightedAverage(outlet) of T = 301.874

Time = 99

smoothSolver:  Solving for Ux, Initial residual = 0.00429661, Final residual = 0.000229243, No Iterations 3
smoothSolver:  Solving for Uy, Initial residual = 0.00320939, Final residual = 0.000313844, No Iterations 2
GAMG:  Solving for p, Initial residual = 0.0169395, Final residual = 8.93124e-05, No Iterations 5
time step continuity errors : sum local = 5.24119e-06, global = 8.70663e-07, cumulative = 1.54366e-05
smoothSolver:  Solving for T, Initial residual = 0.00220096, Final residual = 0.000127106, No Iterations 2
ExecutionTime = 0.7 s  ClockTime = 1 s

surfaceFieldValue outletBulkTemperature write:
    weightedAverage(outlet) of T = 301.875

Time = 100

smoothSolver:  Solving for Ux, Initial residual = 0.00430376, Final residual = 0.000412861, No Iterations 2
smoothSolver:  Solving for Uy, Initial residual = 0.00324399, Final residual = 0.000312503, No Iterations 2
GAMG:  Solving for p, Initial residual = 0.0171547, Final residual = 7.38228e-05, No Iterations 5
time step continuity errors : sum local = 4.49898e-06, global = 6.65992e-07, cumulative = 1.61026e-05
smoothSolver:  Solving for T, Initial residual = 0.00222732, Final residual = 0.000126809, No Iterations 2
ExecutionTime = 0.72 s  ClockTime = 1 s

surfaceFieldValue outletBulkTemperature write:
    weightedAverage(outlet) of T = 301.874

Time = 101

smoothSolver:  Solving for Ux, Initial residual = 0.00444633, Final residual = 0.00043172, No Iterations 2
smoothSolver:  Solving for Uy, Initial residual = 0.00326941, Final residual = 0.000310151, No Iterations 2
GAMG:  Solving for p, Initial residual = 0.0170815, Final residual = 7.4693e-05, No Iterations 5
time step continuity errors : sum local = 4.56138e-06, global = 8.02698e-07, cumulative = 1.69053e-05
smoothSolver:  Solving for T, Initial residual = 0.00224908, Final residual = 0.000128039, No Iterations 2
ExecutionTime = 0.72 s  ClockTime = 1 s

surfaceFieldValue outletBulkTemperature write:
    weightedAverage(outlet) of T = 301.867

Time = 102

smoothSolver:  Solving for Ux, Initial residual = 0.00458831, Final residual = 0.000440424, No Iterations 2
smoothSolver:  Solving for Uy, Initial residual = 0.00330874, Final residual = 0.000309602, No Iterations 2
GAMG:  Solving for p, Initial residual = 0.016596, Final residual = 8.01909e-05, No Iterations 5
time step continuity errors : sum local = 4.76207e-06, global = 4.40902e-07, cumulative = 1.73462e-05
smoothSolver:  Solving for T, Initial residual = 0.00226353, Final residual = 0.000130283, No Iterations 2
ExecutionTime = 0.73 s  ClockTime = 1 s

surfaceFieldValue outletBulkTemperature write:
    weightedAverage(outlet) of T = 301.855

Time = 103

smoothSolver:  Solving for Ux, Initial residual = 0.0047131, Final residual = 0.000446766, No Iterations 2
smoothSolver:  Solving for Uy, Initial residual = 0.00336164, Final residual = 0.000311196, No Iterations 2
GAMG:  Solving for p, Initial residual = 0.0164085, Final residual = 8.35576e-05, No Iterations 5
time step continuity errors : sum local = 4.83072e-06, global = 2.18954e-07, cumulative = 1.75651e-05
smoothSolver:  Solving for T, Initial residual = 0.00226718, Final residual = 0.00013333, No Iterations 2
ExecutionTime = 0.73 s  ClockTime = 1 s

surfaceFieldValue outletBulkTemperature write:
    weightedAverage(outlet) of T = 301.837

Time = 104

smoothSolver:  Solving for Ux, Initial residual = 0.00484008, Final residual = 0.000452791, No Iterations 2
smoothSolver:  Solving for Uy, Initial residual = 0.00340825, Final residual = 0.000313495, No Iterations 2
GAMG:  Solving for p, Initial residual = 0.016, Final residual = 7.67427e-05, No Iterations 5
time step continuity errors : sum local = 4.33566e-06, global = -6.5875e-08, cumulative = 1.74993e-05
smoothSolver:  Solving for T, Initial residual = 0.00226203, Final residual = 0.000136829, No Iterations 2
ExecutionTime = 0.73 s  ClockTime = 1 s

surfaceFieldValue outletBulkTemperature write:
    weightedAverage(outlet) of T = 301.811

Time = 105

smoothSolver:  Solving for Ux, Initial residual = 0.00493229, Final residual = 0.000459646, No Iterations 2
smoothSolver:  Solving for Uy, Initial residual = 0.00345175, Final residual = 0.000316669, No Iterations 2
GAMG:  Solving for p, Initial residual = 0.0162923, Final residual = 7.56512e-05, No Iterations 5
time step continuity errors : sum local = 4.1838e-06, global = -1.67055e-07, cumulative = 1.73322e-05
smoothSolver:  Solving for T, Initial residual = 0.00224947, Final residual = 0.00014022, No Iterations 2
ExecutionTime = 0.75 s  ClockTime = 1 s

surfaceFieldValue outletBulkTemperature write:
    weightedAverage(outlet) of T = 301.779

Time = 106

smoothSolver:  Solving for Ux, Initial residual = 0.004998, Final residual = 0.000466364, No Iterations 2
smoothSolver:  Solving for Uy, Initial residual = 0.00348589, Final residual = 0.0003198, No Iterations 2
GAMG:  Solving for p, Initial residual = 0.0161158, Final residual = 8.1168e-05, No Iterations 5
time step continuity errors : sum local = 4.40194e-06, global = -5.68267e-07, cumulative = 1.67639e-05
smoothSolver:  Solving for T, Initial residual = 0.00222918, Final residual = 0.000143621, No Iterations 2
ExecutionTime = 0.75 s  ClockTime = 1 s

surfaceFieldValue outletBulkTemperature write:
    weightedAverage(outlet) of T = 301.742

Time = 107

smoothSolver:  Solving for Ux, Initial residual = 0.00504206, Final residual = 0.000472828, No Iterations 2
smoothSolver:  Solving for Uy, Initial residual = 0.00350786, Final residual = 0.000323314, No Iterations 2
GAMG:  Solving for p, Initial residual = 0.0161085, Final residual = 9.09625e-05, No Iterations 5
time step continuity errors : sum local = 4.83659e-06, global = -8.59058e-07, cumulative = 1.59049e-05
smoothSolver:  Solving for T, Initial residual = 0.00220552, Final residual = 0.000146706, No Iterations 2
ExecutionTime = 0.76 s  ClockTime = 1 s

surfaceFieldValue outletBulkTemperature write:
    weightedAverage(outlet) of T = 301.7

Time = 108

smoothSolver:  Solving for Ux, Initial residual = 0.00506916, Final residual = 0.000479052, No Iterations 2
smoothSolver:  Solving for Uy, Initial residual = 0.00353113, Final residual = 0.000326871, No Iterations 2
GAMG:  Solving for p, Initial residual = 0.0167809, Final residual = 7.93462e-05, No Iterations 5
time step continuity errors : sum local = 4.16561e-06, global = -5.60192e-07, cumulative = 1.53447e-05
smoothSolver:  Solving for T, Initial residual = 0.00218072, Final residual = 0.000149214, No Iterations 2
ExecutionTime = 0.76 s  ClockTime = 1 s

surfaceFieldValue outletBulkTemperature write:
    weightedAverage(outlet) of T = 301.655

Time = 109

smoothSolver:  Solving for Ux, Initial residual = 0.00508497, Final residual = 0.00048444, No Iterations 2
smoothSolver:  Solving for Uy, Initial residual = 0.00354473, Final residual = 0.000330403, No Iterations 2
GAMG:  Solving for p, Initial residual = 0.0144157, Final residual = 7.01525e-05, No Iterations 5
time step continuity errors : sum local = 3.61737e-06, global = 2.3282e-07, cumulative = 1.55775e-05
smoothSolver:  Solving for T, Initial residual = 0.00216258, Final residual = 0.000151308, No Iterations 2
ExecutionTime = 0.78 s  ClockTime = 1 s

surfaceFieldValue outletBulkTemperature write:
    weightedAverage(outlet) of T = 301.608

Time = 110

smoothSolver:  Solving for Ux, Initial residual = 0.00513471, Final residual = 0.000489016, No Iterations 2
smoothSolver:  Solving for Uy, Initial residual = 0.00354346, Final residual = 0.000333481, No Iterations 2
GAMG:  Solving for p, Initial residual = 0.0131781, Final residual = 6.65988e-05, No Iterations 5
time step continuity errors : sum local = 3.33746e-06, global = -7.70794e-08, cumulative = 1.55004e-05
smoothSolver:  Solving for T, Initial residual = 0.002152, Final residual = 0.000152628, No Iterations 2
ExecutionTime = 0.78 s  ClockTime = 1 s

surfaceFieldValue outletBulkTemperature write:
    weightedAverage(outlet) of T = 301.564

Time = 111

smoothSolver:  Solving for Ux, Initial residual = 0.00522495, Final residual = 0.000492143, No Iterations 2
smoothSolver:  Solving for Uy, Initial residual = 0.00351944, Final residual = 0.000336238, No Iterations 2
GAMG:  Solving for p, Initial residual = 0.0131229, Final residual = 8.07242e-05, No Iterations 5
time step continuity errors : sum local = 3.90441e-06, global = -6.7955e-07, cumulative = 1.48209e-05
smoothSolver:  Solving for T, Initial residual = 0.00215253, Final residual = 0.000153154, No Iterations 2
ExecutionTime = 0.78 s  ClockTime = 1 s

surfaceFieldValue outletBulkTemperature write:
    weightedAverage(outlet) of T = 301.525

Time = 112

smoothSolver:  Solving for Ux, Initial residual = 0.00528586, Final residual = 0.000494096, No Iterations 2
smoothSolver:  Solving for Uy, Initial residual = 0.00347685, Final residual = 0.000338489, No Iterations 2
GAMG:  Solving for p, Initial residual = 0.0122959, Final residual = 7.17883e-05, No Iterations 5
time step continuity errors : sum local = 3.36078e-06, global = -3.34033e-07, cumulative = 1.44868e-05
smoothSolver:  Solving for T, Initial residual = 0.0021655, Final residual = 0.000152921, No Iterations 2
ExecutionTime = 0.8 s  ClockTime = 1 s

surfaceFieldValue outletBulkTemperature write:
    weightedAverage(outlet) of T = 301.493

Time = 113

smoothSolver:  Solving for Ux, Initial residual = 0.00527778, Final residual = 0.000494964, No Iterations 2
smoothSolver:  Solving for Uy, Initial residual = 0.00340341, Final residual = 0.000340037, No Iterations 2
GAMG:  Solving for p, Initial residual = 0.0119548, Final residual = 6.88004e-05, No Iterations 5
time step continuity errors : sum local = 3.12864e-06, global = -1.23178e-07, cumulative = 1.43637e-05
smoothSolver:  Solving for T, Initial residual = 0.00218738, Final residual = 0.000151988, No Iterations 2
ExecutionTime = 0.8 s  ClockTime = 1 s

surfaceFieldValue outletBulkTemperature write:
    weightedAverage(outlet) of T = 301.472

Time = 114

smoothSolver:  Solving for Ux, Initial residual = 0.00519728, Final residual = 0.000495319, No Iterations 2
smoothSolver:  Solving for Uy, Initial residual = 0.00331033, Final residual = 0.000197841, No Iterations 3
GAMG:  Solving for p, Initial residual = 0.0122614, Final residual = 7.62577e-05, No Iterations 5
time step continuity errors : sum local = 3.3937e-06, global = -1.27139e-07, cumulative = 1.42365e-05
smoothSolver:  Solving for T, Initial residual = 0.00221588, Final residual = 0.000151038, No Iterations 2
ExecutionTime = 0.81 s  ClockTime = 1 s

surfaceFieldValue outletBulkTemperature write:
    weightedAverage(outlet) of T = 301.463

Time = 115

smoothSolver:  Solving for Ux, Initial residual = 0.00515097, Final residual = 0.000507112, No Iterations 2
smoothSolver:  Solving for Uy, Initial residual = 0.00319543, Final residual = 0.000190266, No Iterations 3
GAMG:  Solving for p, Initial residual = 0.0115392, Final residual = 7.79218e-05, No Iterations 5
time step continuity errors : sum local = 3.47247e-06, global = -1.62039e-07, cumulative = 1.40745e-05
smoothSolver:  Solving for T, Initial residual = 0.00224627, Final residual = 0.000149371, No Iterations 2
ExecutionTime = 0.81 s  ClockTime = 1 s

surfaceFieldValue outletBulkTemperature write:
    weightedAverage(outlet) of T = 301.467

Time = 116

smoothSolver:  Solving for Ux, Initial residual = 0.00500578, Final residual = 0.000277356, No Iterations 3
smoothSolver:  Solving for Uy, Initial residual = 0.00310809, Final residual = 0.000186898, No Iterations 3
GAMG:  Solving for p, Initial residual = 0.0110105, Final residual = 7.8238e-05, No Iterations 5
time step continuity errors : sum local = 3.52091e-06, global = -2.66732e-07, cumulative = 1.38077e-05
smoothSolver:  Solving for T, Initial residual = 0.00227782, Final residual = 0.00014815, No Iterations 2
ExecutionTime = 0.83 s  ClockTime = 1 s

surfaceFieldValue outletBulkTemperature write:
    weightedAverage(outlet) of T = 301.486

Time = 117

smoothSolver:  Solving for Ux, Initial residual = 0.00480291, Final residual = 0.000262701, No Iterations 3
smoothSolver:  Solving for Uy, Initial residual = 0.00306293, Final residual = 0.000188312, No Iterations 3
GAMG:  Solving for p, Initial residual = 0.0107509, Final residual = 7.52111e-05, No Iterations 5
time step continuity errors : sum local = 3.40868e-06, global = -7.79607e-08, cumulative = 1.37298e-05
smoothSolver:  Solving for T, Initial residual = 0.00230918, Final residual = 0.000146309, No Iterations 2
ExecutionTime = 0.83 s  ClockTime = 1 s

surfaceFieldValue outletBulkTemperature write:
    weightedAverage(outlet) of T = 301.519

Time = 118

smoothSolver:  Solving for Ux, Initial residual = 0.00464429, Final residual = 0.000255562, No Iterations 3
smoothSolver:  Solving for Uy, Initial residual = 0.00301433, Final residual = 0.000187694, No Iterations 3
GAMG:  Solving for p, Initial residual = 0.0104575, Final residual = 7.2717e-05, No Iterations 5
time step continuity errors : sum local = 3.31728e-06, global = 5.27201e-08, cumulative = 1.37825e-05
smoothSolver:  Solving for T, Initial residual = 0.00233875, Final residual = 0.000144056, No Iterations 2
ExecutionTime = 0.83 s  ClockTime = 1 s

surfaceFieldValue outletBulkTemperature write:
    weightedAverage(outlet) of T = 301.566

Time = 119

[...]
time step continuity errors : sum local = 7.68758e-09, global = -1.11066e-09, cumulative = 9.34865e-06
smoothSolver:  Solving for T, Initial residual = 1.58221e-06, Final residual = 1.05425e-07, No Iterations 5
ExecutionTime = 30.18 s  ClockTime = 31 s

surfaceFieldValue outletBulkTemperature write:
    weightedAverage(outlet) of T = 303.147

Time = 3972

smoothSolver:  Solving for Ux, Initial residual = 9.19253e-07, Final residual = 8.46722e-08, No Iterations 3
smoothSolver:  Solving for Uy, Initial residual = 4.81952e-07, Final residual = 3.10878e-08, No Iterations 4
GAMG:  Solving for p, Initial residual = 2.26198e-06, Final residual = 9.3273e-08, No Iterations 3
time step continuity errors : sum local = 7.67608e-09, global = -1.10884e-09, cumulative = 9.34754e-06
smoothSolver:  Solving for T, Initial residual = 1.58166e-06, Final residual = 1.05406e-07, No Iterations 5
ExecutionTime = 30.2 s  ClockTime = 31 s

surfaceFieldValue outletBulkTemperature write:
    weightedAverage(outlet) of T = 303.147

Time = 3973

smoothSolver:  Solving for Ux, Initial residual = 9.17977e-07, Final residual = 8.45615e-08, No Iterations 3
smoothSolver:  Solving for Uy, Initial residual = 4.81262e-07, Final residual = 3.10465e-08, No Iterations 4
GAMG:  Solving for p, Initial residual = 2.25856e-06, Final residual = 9.3135e-08, No Iterations 3
time step continuity errors : sum local = 7.66472e-09, global = -1.10699e-09, cumulative = 9.34643e-06
smoothSolver:  Solving for T, Initial residual = 1.58112e-06, Final residual = 1.05387e-07, No Iterations 5
ExecutionTime = 30.2 s  ClockTime = 31 s

surfaceFieldValue outletBulkTemperature write:
    weightedAverage(outlet) of T = 303.147

Time = 3974

smoothSolver:  Solving for Ux, Initial residual = 9.16711e-07, Final residual = 8.44515e-08, No Iterations 3
smoothSolver:  Solving for Uy, Initial residual = 4.80568e-07, Final residual = 3.10054e-08, No Iterations 4
GAMG:  Solving for p, Initial residual = 2.25517e-06, Final residual = 9.29992e-08, No Iterations 3
time step continuity errors : sum local = 7.65354e-09, global = -1.10515e-09, cumulative = 9.34533e-06
smoothSolver:  Solving for T, Initial residual = 1.58056e-06, Final residual = 1.05368e-07, No Iterations 5
ExecutionTime = 30.21 s  ClockTime = 31 s

surfaceFieldValue outletBulkTemperature write:
    weightedAverage(outlet) of T = 303.147

Time = 3975

smoothSolver:  Solving for Ux, Initial residual = 9.15453e-07, Final residual = 8.4342e-08, No Iterations 3
smoothSolver:  Solving for Uy, Initial residual = 4.79871e-07, Final residual = 3.09643e-08, No Iterations 4
GAMG:  Solving for p, Initial residual = 2.25181e-06, Final residual = 9.28658e-08, No Iterations 3
time step continuity errors : sum local = 7.64256e-09, global = -1.10331e-09, cumulative = 9.34422e-06
smoothSolver:  Solving for T, Initial residual = 1.58e-06, Final residual = 1.05349e-07, No Iterations 5
ExecutionTime = 30.21 s  ClockTime = 31 s

surfaceFieldValue outletBulkTemperature write:
    weightedAverage(outlet) of T = 303.147

Time = 3976

smoothSolver:  Solving for Ux, Initial residual = 9.14201e-07, Final residual = 8.4233e-08, No Iterations 3
smoothSolver:  Solving for Uy, Initial residual = 4.79173e-07, Final residual = 3.09233e-08, No Iterations 4
GAMG:  Solving for p, Initial residual = 2.24848e-06, Final residual = 9.27343e-08, No Iterations 3
time step continuity errors : sum local = 7.63174e-09, global = -1.1015e-09, cumulative = 9.34312e-06
smoothSolver:  Solving for T, Initial residual = 1.57944e-06, Final residual = 1.05331e-07, No Iterations 5
ExecutionTime = 30.23 s  ClockTime = 31 s

surfaceFieldValue outletBulkTemperature write:
    weightedAverage(outlet) of T = 303.147

Time = 3977

smoothSolver:  Solving for Ux, Initial residual = 9.12955e-07, Final residual = 8.41242e-08, No Iterations 3
smoothSolver:  Solving for Uy, Initial residual = 4.78475e-07, Final residual = 3.08824e-08, No Iterations 4
GAMG:  Solving for p, Initial residual = 2.24517e-06, Final residual = 9.26039e-08, No Iterations 3
time step continuity errors : sum local = 7.621e-09, global = -1.09971e-09, cumulative = 9.34202e-06
smoothSolver:  Solving for T, Initial residual = 1.57888e-06, Final residual = 1.05312e-07, No Iterations 5
ExecutionTime = 30.23 s  ClockTime = 31 s

surfaceFieldValue outletBulkTemperature write:
    weightedAverage(outlet) of T = 303.147

Time = 3978

smoothSolver:  Solving for Ux, Initial residual = 9.11714e-07, Final residual = 8.40155e-08, No Iterations 3
smoothSolver:  Solving for Uy, Initial residual = 4.77777e-07, Final residual = 3.08415e-08, No Iterations 4
GAMG:  Solving for p, Initial residual = 2.24187e-06, Final residual = 9.2474e-08, No Iterations 3
time step continuity errors : sum local = 7.6103e-09, global = -1.09794e-09, cumulative = 9.34093e-06
smoothSolver:  Solving for T, Initial residual = 1.57832e-06, Final residual = 1.05293e-07, No Iterations 5
ExecutionTime = 30.23 s  ClockTime = 31 s

surfaceFieldValue outletBulkTemperature write:
    weightedAverage(outlet) of T = 303.147

Time = 3979

smoothSolver:  Solving for Ux, Initial residual = 9.1048e-07, Final residual = 8.3907e-08, No Iterations 3
smoothSolver:  Solving for Uy, Initial residual = 4.77083e-07, Final residual = 3.08007e-08, No Iterations 4
GAMG:  Solving for p, Initial residual = 2.23857e-06, Final residual = 9.2344e-08, No Iterations 3
time step continuity errors : sum local = 7.5996e-09, global = -1.09616e-09, cumulative = 9.33983e-06
smoothSolver:  Solving for T, Initial residual = 1.57777e-06, Final residual = 1.05274e-07, No Iterations 5
ExecutionTime = 30.23 s  ClockTime = 31 s

surfaceFieldValue outletBulkTemperature write:
    weightedAverage(outlet) of T = 303.147

Time = 3980

smoothSolver:  Solving for Ux, Initial residual = 9.09252e-07, Final residual = 8.37985e-08, No Iterations 3
smoothSolver:  Solving for Uy, Initial residual = 4.76392e-07, Final residual = 3.07599e-08, No Iterations 4
GAMG:  Solving for p, Initial residual = 2.23527e-06, Final residual = 9.22137e-08, No Iterations 3
time step continuity errors : sum local = 7.58887e-09, global = -1.09439e-09, cumulative = 9.33873e-06
smoothSolver:  Solving for T, Initial residual = 1.57723e-06, Final residual = 1.05255e-07, No Iterations 5
ExecutionTime = 30.23 s  ClockTime = 31 s

surfaceFieldValue outletBulkTemperature write:
    weightedAverage(outlet) of T = 303.147

Time = 3981

smoothSolver:  Solving for Ux, Initial residual = 9.08033e-07, Final residual = 8.36899e-08, No Iterations 3
smoothSolver:  Solving for Uy, Initial residual = 4.75707e-07, Final residual = 3.07192e-08, No Iterations 4
GAMG:  Solving for p, Initial residual = 2.23198e-06, Final residual = 9.20833e-08, No Iterations 3
time step continuity errors : sum local = 7.57813e-09, global = -1.09262e-09, cumulative = 9.33764e-06
smoothSolver:  Solving for T, Initial residual = 1.57671e-06, Final residual = 1.05235e-07, No Iterations 5
ExecutionTime = 30.23 s  ClockTime = 31 s

surfaceFieldValue outletBulkTemperature write:
    weightedAverage(outlet) of T = 303.147

Time = 3982

smoothSolver:  Solving for Ux, Initial residual = 9.06821e-07, Final residual = 8.35815e-08, No Iterations 3
smoothSolver:  Solving for Uy, Initial residual = 4.75029e-07, Final residual = 3.06786e-08, No Iterations 4
GAMG:  Solving for p, Initial residual = 2.22869e-06, Final residual = 9.1953e-08, No Iterations 3
time step continuity errors : sum local = 7.56741e-09, global = -1.09086e-09, cumulative = 9.33655e-06
smoothSolver:  Solving for T, Initial residual = 1.5762e-06, Final residual = 1.05216e-07, No Iterations 5
ExecutionTime = 30.23 s  ClockTime = 31 s

surfaceFieldValue outletBulkTemperature write:
    weightedAverage(outlet) of T = 303.147

Time = 3983

smoothSolver:  Solving for Ux, Initial residual = 9.05617e-07, Final residual = 8.3473e-08, No Iterations 3
smoothSolver:  Solving for Uy, Initial residual = 4.74359e-07, Final residual = 3.06379e-08, No Iterations 4
GAMG:  Solving for p, Initial residual = 2.22541e-06, Final residual = 9.18231e-08, No Iterations 3
time step continuity errors : sum local = 7.55672e-09, global = -1.08912e-09, cumulative = 9.33546e-06
smoothSolver:  Solving for T, Initial residual = 1.5757e-06, Final residual = 1.05197e-07, No Iterations 5
ExecutionTime = 30.28 s  ClockTime = 31 s

surfaceFieldValue outletBulkTemperature write:
    weightedAverage(outlet) of T = 303.147

Time = 3984

smoothSolver:  Solving for Ux, Initial residual = 9.04421e-07, Final residual = 8.33645e-08, No Iterations 3
smoothSolver:  Solving for Uy, Initial residual = 4.73697e-07, Final residual = 3.05973e-08, No Iterations 4
GAMG:  Solving for p, Initial residual = 2.22214e-06, Final residual = 9.16941e-08, No Iterations 3
time step continuity errors : sum local = 7.54609e-09, global = -1.0874e-09, cumulative = 9.33437e-06
smoothSolver:  Solving for T, Initial residual = 1.57522e-06, Final residual = 1.05178e-07, No Iterations 5
ExecutionTime = 30.28 s  ClockTime = 31 s

surfaceFieldValue outletBulkTemperature write:
    weightedAverage(outlet) of T = 303.147

Time = 3985

smoothSolver:  Solving for Ux, Initial residual = 9.0323e-07, Final residual = 8.3256e-08, No Iterations 3
smoothSolver:  Solving for Uy, Initial residual = 4.73044e-07, Final residual = 3.05568e-08, No Iterations 4
GAMG:  Solving for p, Initial residual = 2.21889e-06, Final residual = 9.15659e-08, No Iterations 3
time step continuity errors : sum local = 7.53554e-09, global = -1.08572e-09, cumulative = 9.33329e-06
smoothSolver:  Solving for T, Initial residual = 1.57476e-06, Final residual = 1.05158e-07, No Iterations 5
ExecutionTime = 30.29 s  ClockTime = 31 s

surfaceFieldValue outletBulkTemperature write:
    weightedAverage(outlet) of T = 303.147

Time = 3986

smoothSolver:  Solving for Ux, Initial residual = 9.02045e-07, Final residual = 8.31476e-08, No Iterations 3
smoothSolver:  Solving for Uy, Initial residual = 4.72399e-07, Final residual = 3.05162e-08, No Iterations 4
GAMG:  Solving for p, Initial residual = 2.21565e-06, Final residual = 9.14386e-08, No Iterations 3
time step continuity errors : sum local = 7.52506e-09, global = -1.08406e-09, cumulative = 9.33221e-06
smoothSolver:  Solving for T, Initial residual = 1.5743e-06, Final residual = 1.05139e-07, No Iterations 5
ExecutionTime = 30.29 s  ClockTime = 31 s

surfaceFieldValue outletBulkTemperature write:
    weightedAverage(outlet) of T = 303.147

Time = 3987

smoothSolver:  Solving for Ux, Initial residual = 9.00864e-07, Final residual = 8.30391e-08, No Iterations 3
smoothSolver:  Solving for Uy, Initial residual = 4.71763e-07, Final residual = 3.04758e-08, No Iterations 4
GAMG:  Solving for p, Initial residual = 2.21243e-06, Final residual = 9.1312e-08, No Iterations 3
time step continuity errors : sum local = 7.51464e-09, global = -1.08244e-09, cumulative = 9.33112e-06
smoothSolver:  Solving for T, Initial residual = 1.57385e-06, Final residual = 1.05119e-07, No Iterations 5
ExecutionTime = 30.29 s  ClockTime = 31 s

surfaceFieldValue outletBulkTemperature write:
    weightedAverage(outlet) of T = 303.147

Time = 3988

smoothSolver:  Solving for Ux, Initial residual = 8.99685e-07, Final residual = 8.29308e-08, No Iterations 3
smoothSolver:  Solving for Uy, Initial residual = 4.71134e-07, Final residual = 3.04355e-08, No Iterations 4
GAMG:  Solving for p, Initial residual = 2.2092e-06, Final residual = 9.11856e-08, No Iterations 3
time step continuity errors : sum local = 7.50423e-09, global = -1.08084e-09, cumulative = 9.33004e-06
smoothSolver:  Solving for T, Initial residual = 1.57341e-06, Final residual = 1.05099e-07, No Iterations 5
ExecutionTime = 30.31 s  ClockTime = 31 s

surfaceFieldValue outletBulkTemperature write:
    weightedAverage(outlet) of T = 303.147

Time = 3989

smoothSolver:  Solving for Ux, Initial residual = 8.98506e-07, Final residual = 8.28227e-08, No Iterations 3
smoothSolver:  Solving for Uy, Initial residual = 4.70511e-07, Final residual = 3.03955e-08, No Iterations 4
GAMG:  Solving for p, Initial residual = 2.20597e-06, Final residual = 9.10595e-08, No Iterations 3
time step continuity errors : sum local = 7.49385e-09, global = -1.07925e-09, cumulative = 9.32896e-06
smoothSolver:  Solving for T, Initial residual = 1.57298e-06, Final residual = 1.0508e-07, No Iterations 5
ExecutionTime = 30.31 s  ClockTime = 31 s

surfaceFieldValue outletBulkTemperature write:
    weightedAverage(outlet) of T = 303.147

Time = 3990

smoothSolver:  Solving for Ux, Initial residual = 8.97327e-07, Final residual = 8.2715e-08, No Iterations 3
smoothSolver:  Solving for Uy, Initial residual = 4.69892e-07, Final residual = 3.03556e-08, No Iterations 4
GAMG:  Solving for p, Initial residual = 2.20278e-06, Final residual = 9.09339e-08, No Iterations 3
time step continuity errors : sum local = 7.48351e-09, global = -1.07766e-09, cumulative = 9.32788e-06
smoothSolver:  Solving for T, Initial residual = 1.57255e-06, Final residual = 1.0506e-07, No Iterations 5
ExecutionTime = 30.32 s  ClockTime = 31 s

surfaceFieldValue outletBulkTemperature write:
    weightedAverage(outlet) of T = 303.147

Time = 3991

smoothSolver:  Solving for Ux, Initial residual = 8.96146e-07, Final residual = 8.26076e-08, No Iterations 3
smoothSolver:  Solving for Uy, Initial residual = 4.69277e-07, Final residual = 3.03157e-08, No Iterations 4
GAMG:  Solving for p, Initial residual = 2.19961e-06, Final residual = 9.08083e-08, No Iterations 3
time step continuity errors : sum local = 7.47318e-09, global = -1.07606e-09, cumulative = 9.32681e-06
smoothSolver:  Solving for T, Initial residual = 1.57213e-06, Final residual = 1.0504e-07, No Iterations 5
ExecutionTime = 30.32 s  ClockTime = 31 s

surfaceFieldValue outletBulkTemperature write:
    weightedAverage(outlet) of T = 303.147

Time = 3992

smoothSolver:  Solving for Ux, Initial residual = 8.94964e-07, Final residual = 8.25005e-08, No Iterations 3
smoothSolver:  Solving for Uy, Initial residual = 4.68666e-07, Final residual = 3.02759e-08, No Iterations 4
GAMG:  Solving for p, Initial residual = 2.19646e-06, Final residual = 9.06829e-08, No Iterations 3
time step continuity errors : sum local = 7.46284e-09, global = -1.07445e-09, cumulative = 9.32573e-06
smoothSolver:  Solving for T, Initial residual = 1.57171e-06, Final residual = 1.0502e-07, No Iterations 5
ExecutionTime = 30.34 s  ClockTime = 31 s

surfaceFieldValue outletBulkTemperature write:
    weightedAverage(outlet) of T = 303.147

Time = 3993

smoothSolver:  Solving for Ux, Initial residual = 8.93778e-07, Final residual = 8.23936e-08, No Iterations 3
smoothSolver:  Solving for Uy, Initial residual = 4.68056e-07, Final residual = 3.02361e-08, No Iterations 4
GAMG:  Solving for p, Initial residual = 2.19333e-06, Final residual = 9.05575e-08, No Iterations 3
time step continuity errors : sum local = 7.45252e-09, global = -1.07285e-09, cumulative = 9.32466e-06
smoothSolver:  Solving for T, Initial residual = 1.57128e-06, Final residual = 1.05e-07, No Iterations 5
ExecutionTime = 30.34 s  ClockTime = 31 s

surfaceFieldValue outletBulkTemperature write:
    weightedAverage(outlet) of T = 303.147

Time = 3994

smoothSolver:  Solving for Ux, Initial residual = 8.9259e-07, Final residual = 8.22868e-08, No Iterations 3
smoothSolver:  Solving for Uy, Initial residual = 4.67445e-07, Final residual = 3.01963e-08, No Iterations 4
GAMG:  Solving for p, Initial residual = 2.19022e-06, Final residual = 9.04323e-08, No Iterations 3
time step continuity errors : sum local = 7.44222e-09, global = -1.07126e-09, cumulative = 9.32359e-06
smoothSolver:  Solving for T, Initial residual = 1.57086e-06, Final residual = 1.0498e-07, No Iterations 5
ExecutionTime = 30.35 s  ClockTime = 31 s

surfaceFieldValue outletBulkTemperature write:
    weightedAverage(outlet) of T = 303.147

Time = 3995

smoothSolver:  Solving for Ux, Initial residual = 8.91399e-07, Final residual = 8.218e-08, No Iterations 3
smoothSolver:  Solving for Uy, Initial residual = 4.66832e-07, Final residual = 3.01566e-08, No Iterations 4
GAMG:  Solving for p, Initial residual = 2.18713e-06, Final residual = 9.03074e-08, No Iterations 3
time step continuity errors : sum local = 7.43193e-09, global = -1.06969e-09, cumulative = 9.32252e-06
smoothSolver:  Solving for T, Initial residual = 1.57044e-06, Final residual = 1.0496e-07, No Iterations 5
ExecutionTime = 30.35 s  ClockTime = 31 s

surfaceFieldValue outletBulkTemperature write:
    weightedAverage(outlet) of T = 303.147

Time = 3996

smoothSolver:  Solving for Ux, Initial residual = 8.90205e-07, Final residual = 8.20732e-08, No Iterations 3
smoothSolver:  Solving for Uy, Initial residual = 4.66216e-07, Final residual = 3.01169e-08, No Iterations 4
GAMG:  Solving for p, Initial residual = 2.18403e-06, Final residual = 9.01826e-08, No Iterations 3
time step continuity errors : sum local = 7.42166e-09, global = -1.06813e-09, cumulative = 9.32145e-06
smoothSolver:  Solving for T, Initial residual = 1.57002e-06, Final residual = 1.0494e-07, No Iterations 5
ExecutionTime = 30.37 s  ClockTime = 31 s

surfaceFieldValue outletBulkTemperature write:
    weightedAverage(outlet) of T = 303.147

Time = 3997

smoothSolver:  Solving for Ux, Initial residual = 8.89009e-07, Final residual = 8.19664e-08, No Iterations 3
smoothSolver:  Solving for Uy, Initial residual = 4.65595e-07, Final residual = 3.00773e-08, No Iterations 4
GAMG:  Solving for p, Initial residual = 2.18094e-06, Final residual = 9.00578e-08, No Iterations 3
time step continuity errors : sum local = 7.41139e-09, global = -1.06658e-09, cumulative = 9.32039e-06
smoothSolver:  Solving for T, Initial residual = 1.5696e-06, Final residual = 1.0492e-07, No Iterations 5
ExecutionTime = 30.37 s  ClockTime = 31 s

surfaceFieldValue outletBulkTemperature write:
    weightedAverage(outlet) of T = 303.147

Time = 3998

smoothSolver:  Solving for Ux, Initial residual = 8.8781e-07, Final residual = 8.18596e-08, No Iterations 3
smoothSolver:  Solving for Uy, Initial residual = 4.64968e-07, Final residual = 3.00378e-08, No Iterations 4
GAMG:  Solving for p, Initial residual = 2.17784e-06, Final residual = 8.99329e-08, No Iterations 3
time step continuity errors : sum local = 7.4011e-09, global = -1.06503e-09, cumulative = 9.31932e-06
smoothSolver:  Solving for T, Initial residual = 1.56917e-06, Final residual = 1.049e-07, No Iterations 5
ExecutionTime = 30.39 s  ClockTime = 31 s

surfaceFieldValue outletBulkTemperature write:
    weightedAverage(outlet) of T = 303.147

Time = 3999

smoothSolver:  Solving for Ux, Initial residual = 8.86607e-07, Final residual = 8.17528e-08, No Iterations 3
smoothSolver:  Solving for Uy, Initial residual = 4.64337e-07, Final residual = 2.99983e-08, No Iterations 4
GAMG:  Solving for p, Initial residual = 2.17473e-06, Final residual = 8.98076e-08, No Iterations 3
time step continuity errors : sum local = 7.39078e-09, global = -1.06348e-09, cumulative = 9.31826e-06
smoothSolver:  Solving for T, Initial residual = 1.56874e-06, Final residual = 1.0488e-07, No Iterations 5
ExecutionTime = 30.39 s  ClockTime = 31 s

surfaceFieldValue outletBulkTemperature write:
    weightedAverage(outlet) of T = 303.147

Time = 4000

smoothSolver:  Solving for Ux, Initial residual = 8.85402e-07, Final residual = 8.16461e-08, No Iterations 3
smoothSolver:  Solving for Uy, Initial residual = 4.63701e-07, Final residual = 2.9959e-08, No Iterations 4
GAMG:  Solving for p, Initial residual = 2.17162e-06, Final residual = 8.96817e-08, No Iterations 3
time step continuity errors : sum local = 7.38043e-09, global = -1.06192e-09, cumulative = 9.3172e-06
smoothSolver:  Solving for T, Initial residual = 1.5683e-06, Final residual = 1.0486e-07, No Iterations 5
ExecutionTime = 30.41 s  ClockTime = 31 s

surfaceFieldValue outletBulkTemperature write:
    weightedAverage(outlet) of T = 303.147

End

